
No compatibility mode selected!


Circuit: tia

Doing analysis at TEMP = 27.000000 and TNOM = 27.000000

Warning: i1: no DC value, transient time 0 value used

No. of Data Rows : 89
ymax                =  5.073467e+03 at=  2.371374e+07
cut                 =  3.882255e+07
Doing analysis at TEMP = 27.000000 and TNOM = 27.000000

Warning: i1: no DC value, transient time 0 value used

No. of Data Rows : 89
ymax                =  5.110010e+03 at=  2.371374e+07
cut                 =  3.939725e+07
Doing analysis at TEMP = 27.000000 and TNOM = 27.000000

Warning: i1: no DC value, transient time 0 value used

No. of Data Rows : 89
ymax                =  5.294394e+03 at=  2.371374e+07
cut                 =  3.851745e+07
Doing analysis at TEMP = 27.000000 and TNOM = 27.000000

Warning: i1: no DC value, transient time 0 value used

No. of Data Rows : 89
ymax                =  5.235223e+03 at=  2.371374e+07
cut                 =  3.863592e+07
Doing analysis at TEMP = 27.000000 and TNOM = 27.000000

Warning: i1: no DC value, transient time 0 value used

No. of Data Rows : 89
ymax                =  5.297671e+03 at=  2.371374e+07
cut                 =  3.852196e+07
Doing analysis at TEMP = 27.000000 and TNOM = 27.000000

Warning: i1: no DC value, transient time 0 value used

No. of Data Rows : 89
ymax                =  5.267530e+03 at=  2.371374e+07
cut                 =  3.872417e+07
Doing analysis at TEMP = 27.000000 and TNOM = 27.000000

Warning: i1: no DC value, transient time 0 value used

No. of Data Rows : 89
ymax                =  5.107188e+03 at=  2.371374e+07
cut                 =  3.898777e+07
Doing analysis at TEMP = 27.000000 and TNOM = 27.000000

Warning: i1: no DC value, transient time 0 value used

No. of Data Rows : 89
ymax                =  5.189103e+03 at=  2.371374e+07
cut                 =  3.887573e+07
Doing analysis at TEMP = 27.000000 and TNOM = 27.000000

Warning: i1: no DC value, transient time 0 value used

No. of Data Rows : 89
ymax                =  5.214569e+03 at=  2.371374e+07
cut                 =  3.841392e+07
Doing analysis at TEMP = 27.000000 and TNOM = 27.000000

Warning: i1: no DC value, transient time 0 value used

No. of Data Rows : 89
ymax                =  5.118962e+03 at=  2.371374e+07
cut                 =  3.877550e+07
Doing analysis at TEMP = 27.000000 and TNOM = 27.000000

Warning: i1: no DC value, transient time 0 value used

No. of Data Rows : 89
ymax                =  5.122153e+03 at=  2.371374e+07
cut                 =  3.897820e+07
Doing analysis at TEMP = 27.000000 and TNOM = 27.000000

Warning: i1: no DC value, transient time 0 value used

No. of Data Rows : 89
ymax                =  5.043647e+03 at=  2.371374e+07
cut                 =  3.938622e+07
Doing analysis at TEMP = 27.000000 and TNOM = 27.000000

Warning: i1: no DC value, transient time 0 value used

No. of Data Rows : 89
ymax                =  5.183634e+03 at=  2.371374e+07
cut                 =  3.880085e+07
Doing analysis at TEMP = 27.000000 and TNOM = 27.000000

Warning: i1: no DC value, transient time 0 value used

No. of Data Rows : 89
ymax                =  5.129540e+03 at=  2.371374e+07
cut                 =  3.847724e+07
Doing analysis at TEMP = 27.000000 and TNOM = 27.000000

Warning: i1: no DC value, transient time 0 value used

No. of Data Rows : 89
ymax                =  5.011306e+03 at=  2.371374e+07
cut                 =  3.954628e+07
Doing analysis at TEMP = 27.000000 and TNOM = 27.000000

Warning: i1: no DC value, transient time 0 value used

No. of Data Rows : 89
ymax                =  5.099973e+03 at=  2.371374e+07
cut                 =  3.891669e+07
Doing analysis at TEMP = 27.000000 and TNOM = 27.000000

Warning: i1: no DC value, transient time 0 value used

No. of Data Rows : 89
ymax                =  4.827437e+03 at=  2.371374e+07
cut                 =  3.997601e+07
Doing analysis at TEMP = 27.000000 and TNOM = 27.000000

Warning: i1: no DC value, transient time 0 value used

No. of Data Rows : 89
ymax                =  5.170765e+03 at=  2.371374e+07
cut                 =  3.840375e+07
Doing analysis at TEMP = 27.000000 and TNOM = 27.000000

Warning: i1: no DC value, transient time 0 value used

No. of Data Rows : 89
ymax                =  5.256294e+03 at=  2.371374e+07
cut                 =  3.823388e+07
Doing analysis at TEMP = 27.000000 and TNOM = 27.000000

Warning: i1: no DC value, transient time 0 value used

No. of Data Rows : 89
ymax                =  4.956807e+03 at=  2.371374e+07
cut                 =  3.927764e+07
Doing analysis at TEMP = 27.000000 and TNOM = 27.000000

Warning: i1: no DC value, transient time 0 value used

No. of Data Rows : 89
ymax                =  5.303667e+03 at=  2.371374e+07
cut                 =  3.827977e+07
Doing analysis at TEMP = 27.000000 and TNOM = 27.000000

Warning: i1: no DC value, transient time 0 value used

No. of Data Rows : 89
ymax                =  5.278371e+03 at=  2.371374e+07
cut                 =  3.853819e+07
Doing analysis at TEMP = 27.000000 and TNOM = 27.000000

Warning: i1: no DC value, transient time 0 value used

No. of Data Rows : 89
ymax                =  5.089729e+03 at=  2.371374e+07
cut                 =  3.908613e+07
Doing analysis at TEMP = 27.000000 and TNOM = 27.000000

Warning: i1: no DC value, transient time 0 value used

No. of Data Rows : 89
ymax                =  5.173696e+03 at=  2.371374e+07
cut                 =  3.913246e+07
Doing analysis at TEMP = 27.000000 and TNOM = 27.000000

Warning: i1: no DC value, transient time 0 value used

No. of Data Rows : 89
ymax                =  5.248472e+03 at=  2.371374e+07
cut                 =  3.847035e+07
Doing analysis at TEMP = 27.000000 and TNOM = 27.000000

Warning: i1: no DC value, transient time 0 value used

No. of Data Rows : 89
ymax                =  5.242779e+03 at=  2.371374e+07
cut                 =  3.871913e+07
Doing analysis at TEMP = 27.000000 and TNOM = 27.000000

Warning: i1: no DC value, transient time 0 value used

No. of Data Rows : 89
ymax                =  5.097705e+03 at=  2.371374e+07
cut                 =  3.906349e+07
Doing analysis at TEMP = 27.000000 and TNOM = 27.000000

Warning: i1: no DC value, transient time 0 value used

No. of Data Rows : 89
ymax                =  5.312824e+03 at=  2.371374e+07
cut                 =  3.824119e+07
Doing analysis at TEMP = 27.000000 and TNOM = 27.000000

Warning: i1: no DC value, transient time 0 value used

No. of Data Rows : 89
ymax                =  5.318664e+03 at=  2.371374e+07
cut                 =  3.846019e+07
Doing analysis at TEMP = 27.000000 and TNOM = 27.000000

Warning: i1: no DC value, transient time 0 value used

No. of Data Rows : 89
ymax                =  5.105830e+03 at=  2.371374e+07
cut                 =  3.920204e+07
Doing analysis at TEMP = 27.000000 and TNOM = 27.000000

Warning: i1: no DC value, transient time 0 value used

No. of Data Rows : 89
ymax                =  5.129629e+03 at=  2.371374e+07
cut                 =  3.897310e+07
Doing analysis at TEMP = 27.000000 and TNOM = 27.000000

Warning: i1: no DC value, transient time 0 value used

No. of Data Rows : 89
ymax                =  5.101174e+03 at=  2.371374e+07
cut                 =  3.862336e+07
Doing analysis at TEMP = 27.000000 and TNOM = 27.000000

Warning: i1: no DC value, transient time 0 value used

No. of Data Rows : 89
ymax                =  5.179398e+03 at=  2.371374e+07
cut                 =  3.868654e+07
Doing analysis at TEMP = 27.000000 and TNOM = 27.000000

Warning: i1: no DC value, transient time 0 value used

No. of Data Rows : 89
ymax                =  5.216436e+03 at=  2.371374e+07
cut                 =  3.824241e+07
Doing analysis at TEMP = 27.000000 and TNOM = 27.000000

Warning: i1: no DC value, transient time 0 value used

No. of Data Rows : 89
ymax                =  5.376398e+03 at=  2.371374e+07
cut                 =  3.759102e+07
Doing analysis at TEMP = 27.000000 and TNOM = 27.000000

Warning: i1: no DC value, transient time 0 value used

No. of Data Rows : 89
ymax                =  5.131166e+03 at=  2.371374e+07
cut                 =  3.850131e+07
Doing analysis at TEMP = 27.000000 and TNOM = 27.000000

Warning: i1: no DC value, transient time 0 value used

No. of Data Rows : 89
ymax                =  5.129394e+03 at=  2.371374e+07
cut                 =  3.847308e+07
Doing analysis at TEMP = 27.000000 and TNOM = 27.000000

Warning: i1: no DC value, transient time 0 value used

No. of Data Rows : 89
ymax                =  5.173187e+03 at=  2.371374e+07
cut                 =  3.867293e+07
Doing analysis at TEMP = 27.000000 and TNOM = 27.000000

Warning: i1: no DC value, transient time 0 value used

No. of Data Rows : 89
ymax                =  5.229091e+03 at=  2.371374e+07
cut                 =  3.871231e+07
Doing analysis at TEMP = 27.000000 and TNOM = 27.000000

Warning: i1: no DC value, transient time 0 value used

No. of Data Rows : 89
ymax                =  5.267724e+03 at=  2.371374e+07
cut                 =  3.835640e+07
Doing analysis at TEMP = 27.000000 and TNOM = 27.000000

Warning: i1: no DC value, transient time 0 value used

No. of Data Rows : 89
ymax                =  5.149277e+03 at=  2.371374e+07
cut                 =  3.872545e+07
Doing analysis at TEMP = 27.000000 and TNOM = 27.000000

Warning: i1: no DC value, transient time 0 value used

No. of Data Rows : 89
ymax                =  5.253544e+03 at=  2.371374e+07
cut                 =  3.802297e+07
Doing analysis at TEMP = 27.000000 and TNOM = 27.000000

Warning: i1: no DC value, transient time 0 value used

No. of Data Rows : 89
ymax                =  5.023894e+03 at=  2.371374e+07
cut                 =  3.896332e+07
Doing analysis at TEMP = 27.000000 and TNOM = 27.000000

Warning: i1: no DC value, transient time 0 value used

No. of Data Rows : 89
ymax                =  5.193388e+03 at=  2.371374e+07
cut                 =  3.857204e+07
Doing analysis at TEMP = 27.000000 and TNOM = 27.000000

Warning: i1: no DC value, transient time 0 value used

No. of Data Rows : 89
ymax                =  5.202143e+03 at=  2.371374e+07
cut                 =  3.837807e+07
Doing analysis at TEMP = 27.000000 and TNOM = 27.000000

Warning: i1: no DC value, transient time 0 value used

No. of Data Rows : 89
ymax                =  5.260680e+03 at=  2.371374e+07
cut                 =  3.808135e+07
Doing analysis at TEMP = 27.000000 and TNOM = 27.000000

Warning: i1: no DC value, transient time 0 value used

No. of Data Rows : 89
ymax                =  5.103928e+03 at=  2.371374e+07
cut                 =  3.932255e+07
Doing analysis at TEMP = 27.000000 and TNOM = 27.000000

Warning: i1: no DC value, transient time 0 value used

No. of Data Rows : 89
ymax                =  5.135584e+03 at=  2.371374e+07
cut                 =  3.857623e+07
Doing analysis at TEMP = 27.000000 and TNOM = 27.000000

Warning: i1: no DC value, transient time 0 value used

No. of Data Rows : 89
ymax                =  5.052313e+03 at=  2.371374e+07
cut                 =  3.912009e+07
Doing analysis at TEMP = 27.000000 and TNOM = 27.000000

Warning: i1: no DC value, transient time 0 value used

No. of Data Rows : 89
ymax                =  5.154352e+03 at=  2.371374e+07
cut                 =  3.907315e+07
Doing analysis at TEMP = 27.000000 and TNOM = 27.000000

Warning: i1: no DC value, transient time 0 value used

No. of Data Rows : 89
ymax                =  5.456597e+03 at=  2.371374e+07
cut                 =  3.771520e+07
Doing analysis at TEMP = 27.000000 and TNOM = 27.000000

Warning: i1: no DC value, transient time 0 value used

No. of Data Rows : 89
ymax                =  5.158550e+03 at=  2.371374e+07
cut                 =  3.837886e+07
Doing analysis at TEMP = 27.000000 and TNOM = 27.000000

Warning: i1: no DC value, transient time 0 value used

No. of Data Rows : 89
ymax                =  5.189182e+03 at=  2.371374e+07
cut                 =  3.838052e+07
Doing analysis at TEMP = 27.000000 and TNOM = 27.000000

Warning: i1: no DC value, transient time 0 value used

No. of Data Rows : 89
ymax                =  5.172771e+03 at=  2.371374e+07
cut                 =  3.872725e+07
Doing analysis at TEMP = 27.000000 and TNOM = 27.000000

Warning: i1: no DC value, transient time 0 value used

No. of Data Rows : 89
ymax                =  5.226871e+03 at=  2.371374e+07
cut                 =  3.811191e+07
Doing analysis at TEMP = 27.000000 and TNOM = 27.000000

Warning: i1: no DC value, transient time 0 value used

No. of Data Rows : 89
ymax                =  5.141081e+03 at=  2.371374e+07
cut                 =  3.899879e+07
Doing analysis at TEMP = 27.000000 and TNOM = 27.000000

Warning: i1: no DC value, transient time 0 value used

No. of Data Rows : 89
ymax                =  5.012512e+03 at=  2.371374e+07
cut                 =  3.944497e+07
Doing analysis at TEMP = 27.000000 and TNOM = 27.000000

Warning: i1: no DC value, transient time 0 value used

No. of Data Rows : 89
ymax                =  5.124099e+03 at=  2.371374e+07
cut                 =  3.903789e+07
Doing analysis at TEMP = 27.000000 and TNOM = 27.000000

Warning: i1: no DC value, transient time 0 value used

No. of Data Rows : 89
ymax                =  5.101077e+03 at=  2.371374e+07
cut                 =  3.901462e+07
Doing analysis at TEMP = 27.000000 and TNOM = 27.000000

Warning: i1: no DC value, transient time 0 value used

No. of Data Rows : 89
ymax                =  5.233176e+03 at=  2.371374e+07
cut                 =  3.866978e+07
Doing analysis at TEMP = 27.000000 and TNOM = 27.000000

Warning: i1: no DC value, transient time 0 value used

No. of Data Rows : 89
ymax                =  5.252827e+03 at=  2.371374e+07
cut                 =  3.848235e+07
Doing analysis at TEMP = 27.000000 and TNOM = 27.000000

Warning: i1: no DC value, transient time 0 value used

No. of Data Rows : 89
ymax                =  5.059452e+03 at=  2.371374e+07
cut                 =  3.911538e+07
Doing analysis at TEMP = 27.000000 and TNOM = 27.000000

Warning: i1: no DC value, transient time 0 value used

No. of Data Rows : 89
ymax                =  5.219999e+03 at=  2.371374e+07
cut                 =  3.853195e+07
Doing analysis at TEMP = 27.000000 and TNOM = 27.000000

Warning: i1: no DC value, transient time 0 value used

No. of Data Rows : 89
ymax                =  5.136372e+03 at=  2.371374e+07
cut                 =  3.899487e+07
Doing analysis at TEMP = 27.000000 and TNOM = 27.000000

Warning: i1: no DC value, transient time 0 value used

No. of Data Rows : 89
ymax                =  5.412705e+03 at=  2.371374e+07
cut                 =  3.798364e+07
Doing analysis at TEMP = 27.000000 and TNOM = 27.000000

Warning: i1: no DC value, transient time 0 value used

No. of Data Rows : 89
ymax                =  5.167430e+03 at=  2.371374e+07
cut                 =  3.838897e+07
Doing analysis at TEMP = 27.000000 and TNOM = 27.000000

Warning: i1: no DC value, transient time 0 value used

No. of Data Rows : 89
ymax                =  5.041750e+03 at=  2.371374e+07
cut                 =  3.933597e+07
Doing analysis at TEMP = 27.000000 and TNOM = 27.000000

Warning: i1: no DC value, transient time 0 value used

No. of Data Rows : 89
ymax                =  5.217506e+03 at=  2.371374e+07
cut                 =  3.865338e+07
Doing analysis at TEMP = 27.000000 and TNOM = 27.000000

Warning: i1: no DC value, transient time 0 value used

No. of Data Rows : 89
ymax                =  5.299579e+03 at=  2.371374e+07
cut                 =  3.836406e+07
Doing analysis at TEMP = 27.000000 and TNOM = 27.000000

Warning: i1: no DC value, transient time 0 value used

No. of Data Rows : 89
ymax                =  5.294299e+03 at=  2.371374e+07
cut                 =  3.854599e+07
Doing analysis at TEMP = 27.000000 and TNOM = 27.000000

Warning: i1: no DC value, transient time 0 value used

No. of Data Rows : 89
ymax                =  5.179932e+03 at=  2.371374e+07
cut                 =  3.863249e+07
Doing analysis at TEMP = 27.000000 and TNOM = 27.000000

Warning: i1: no DC value, transient time 0 value used

No. of Data Rows : 89
ymax                =  5.297076e+03 at=  2.371374e+07
cut                 =  3.850262e+07
Doing analysis at TEMP = 27.000000 and TNOM = 27.000000

Warning: i1: no DC value, transient time 0 value used

No. of Data Rows : 89
ymax                =  5.074464e+03 at=  2.371374e+07
cut                 =  3.923441e+07
Doing analysis at TEMP = 27.000000 and TNOM = 27.000000

Warning: i1: no DC value, transient time 0 value used

No. of Data Rows : 89
ymax                =  4.977089e+03 at=  2.371374e+07
cut                 =  3.976827e+07
Doing analysis at TEMP = 27.000000 and TNOM = 27.000000

Warning: i1: no DC value, transient time 0 value used

No. of Data Rows : 89
ymax                =  5.147402e+03 at=  2.371374e+07
cut                 =  3.895170e+07
Doing analysis at TEMP = 27.000000 and TNOM = 27.000000

Warning: i1: no DC value, transient time 0 value used

No. of Data Rows : 89
ymax                =  5.061883e+03 at=  2.371374e+07
cut                 =  3.916933e+07
Doing analysis at TEMP = 27.000000 and TNOM = 27.000000

Warning: i1: no DC value, transient time 0 value used

No. of Data Rows : 89
ymax                =  5.141207e+03 at=  2.371374e+07
cut                 =  3.873765e+07
Doing analysis at TEMP = 27.000000 and TNOM = 27.000000

Warning: i1: no DC value, transient time 0 value used

No. of Data Rows : 89
ymax                =  5.091560e+03 at=  2.371374e+07
cut                 =  3.919444e+07
Doing analysis at TEMP = 27.000000 and TNOM = 27.000000

Warning: i1: no DC value, transient time 0 value used

No. of Data Rows : 89
ymax                =  5.170379e+03 at=  2.371374e+07
cut                 =  3.866680e+07
Doing analysis at TEMP = 27.000000 and TNOM = 27.000000

Warning: i1: no DC value, transient time 0 value used

No. of Data Rows : 89
ymax                =  5.165198e+03 at=  2.371374e+07
cut                 =  3.846168e+07
Doing analysis at TEMP = 27.000000 and TNOM = 27.000000

Warning: i1: no DC value, transient time 0 value used

No. of Data Rows : 89
ymax                =  5.057461e+03 at=  2.371374e+07
cut                 =  3.934813e+07
Doing analysis at TEMP = 27.000000 and TNOM = 27.000000

Warning: i1: no DC value, transient time 0 value used

No. of Data Rows : 89
ymax                =  5.041608e+03 at=  2.371374e+07
cut                 =  3.916770e+07
Doing analysis at TEMP = 27.000000 and TNOM = 27.000000

Warning: i1: no DC value, transient time 0 value used

No. of Data Rows : 89
ymax                =  5.299648e+03 at=  2.371374e+07
cut                 =  3.824407e+07
Doing analysis at TEMP = 27.000000 and TNOM = 27.000000

Warning: i1: no DC value, transient time 0 value used

No. of Data Rows : 89
ymax                =  5.335280e+03 at=  2.371374e+07
cut                 =  3.815104e+07
Doing analysis at TEMP = 27.000000 and TNOM = 27.000000

Warning: i1: no DC value, transient time 0 value used

No. of Data Rows : 89
ymax                =  5.016978e+03 at=  2.371374e+07
cut                 =  3.937999e+07
Doing analysis at TEMP = 27.000000 and TNOM = 27.000000

Warning: i1: no DC value, transient time 0 value used

No. of Data Rows : 89
ymax                =  5.225923e+03 at=  2.371374e+07
cut                 =  3.841709e+07
Doing analysis at TEMP = 27.000000 and TNOM = 27.000000

Warning: i1: no DC value, transient time 0 value used

No. of Data Rows : 89
ymax                =  4.978027e+03 at=  2.371374e+07
cut                 =  3.932395e+07
Doing analysis at TEMP = 27.000000 and TNOM = 27.000000

Warning: i1: no DC value, transient time 0 value used

No. of Data Rows : 89
ymax                =  5.209501e+03 at=  2.371374e+07
cut                 =  3.863580e+07
Doing analysis at TEMP = 27.000000 and TNOM = 27.000000

Warning: i1: no DC value, transient time 0 value used

No. of Data Rows : 89
ymax                =  4.932400e+03 at=  2.371374e+07
cut                 =  3.973934e+07
Doing analysis at TEMP = 27.000000 and TNOM = 27.000000

Warning: i1: no DC value, transient time 0 value used

No. of Data Rows : 89
ymax                =  5.035862e+03 at=  2.371374e+07
cut                 =  3.969204e+07
Doing analysis at TEMP = 27.000000 and TNOM = 27.000000

Warning: i1: no DC value, transient time 0 value used

No. of Data Rows : 89
ymax                =  5.347681e+03 at=  2.371374e+07
cut                 =  3.847216e+07
Doing analysis at TEMP = 27.000000 and TNOM = 27.000000

Warning: i1: no DC value, transient time 0 value used

No. of Data Rows : 89
ymax                =  5.196937e+03 at=  2.371374e+07
cut                 =  3.827016e+07
Doing analysis at TEMP = 27.000000 and TNOM = 27.000000

Warning: i1: no DC value, transient time 0 value used

No. of Data Rows : 89
ymax                =  5.153142e+03 at=  2.371374e+07
cut                 =  3.893023e+07
Doing analysis at TEMP = 27.000000 and TNOM = 27.000000

Warning: i1: no DC value, transient time 0 value used

No. of Data Rows : 89
ymax                =  5.377721e+03 at=  2.371374e+07
cut                 =  3.841544e+07
Doing analysis at TEMP = 27.000000 and TNOM = 27.000000

Warning: i1: no DC value, transient time 0 value used

No. of Data Rows : 89
ymax                =  5.499721e+03 at=  2.371374e+07
cut                 =  3.792277e+07
Doing analysis at TEMP = 27.000000 and TNOM = 27.000000

Warning: i1: no DC value, transient time 0 value used

No. of Data Rows : 89
ymax                =  5.096158e+03 at=  2.371374e+07
cut                 =  3.913364e+07
Doing analysis at TEMP = 27.000000 and TNOM = 27.000000

Warning: i1: no DC value, transient time 0 value used

No. of Data Rows : 89
ymax                =  5.137481e+03 at=  2.371374e+07
cut                 =  3.885146e+07
Doing analysis at TEMP = 27.000000 and TNOM = 27.000000

Warning: i1: no DC value, transient time 0 value used

No. of Data Rows : 89
ymax                =  5.273293e+03 at=  2.371374e+07
cut                 =  3.798755e+07
Doing analysis at TEMP = 27.000000 and TNOM = 27.000000

Warning: i1: no DC value, transient time 0 value used

No. of Data Rows : 89
ymax                =  5.142895e+03 at=  2.371374e+07
cut                 =  3.900498e+07
Doing analysis at TEMP = 27.000000 and TNOM = 27.000000

Warning: i1: no DC value, transient time 0 value used

No. of Data Rows : 89
ymax                =  5.073456e+03 at=  2.371374e+07
cut                 =  3.892102e+07
Doing analysis at TEMP = 27.000000 and TNOM = 27.000000

Warning: i1: no DC value, transient time 0 value used

No. of Data Rows : 89
ymax                =  5.256096e+03 at=  2.371374e+07
cut                 =  3.830219e+07
Doing analysis at TEMP = 27.000000 and TNOM = 27.000000

Warning: i1: no DC value, transient time 0 value used

No. of Data Rows : 89
ymax                =  5.165141e+03 at=  2.371374e+07
cut                 =  3.918426e+07
Doing analysis at TEMP = 27.000000 and TNOM = 27.000000

Warning: i1: no DC value, transient time 0 value used

No. of Data Rows : 89
ymax                =  5.414377e+03 at=  2.371374e+07
cut                 =  3.809616e+07
Doing analysis at TEMP = 27.000000 and TNOM = 27.000000

Warning: i1: no DC value, transient time 0 value used

No. of Data Rows : 89
ymax                =  5.187223e+03 at=  2.371374e+07
cut                 =  3.852963e+07
Doing analysis at TEMP = 27.000000 and TNOM = 27.000000

Warning: i1: no DC value, transient time 0 value used

No. of Data Rows : 89
ymax                =  5.107353e+03 at=  2.371374e+07
cut                 =  3.904183e+07
Doing analysis at TEMP = 27.000000 and TNOM = 27.000000

Warning: i1: no DC value, transient time 0 value used

No. of Data Rows : 89
ymax                =  4.928702e+03 at=  2.371374e+07
cut                 =  3.949093e+07
Doing analysis at TEMP = 27.000000 and TNOM = 27.000000

Warning: i1: no DC value, transient time 0 value used

No. of Data Rows : 89
ymax                =  5.217301e+03 at=  2.371374e+07
cut                 =  3.865223e+07
Doing analysis at TEMP = 27.000000 and TNOM = 27.000000

Warning: i1: no DC value, transient time 0 value used

No. of Data Rows : 89
ymax                =  5.239634e+03 at=  2.371374e+07
cut                 =  3.832033e+07
Doing analysis at TEMP = 27.000000 and TNOM = 27.000000

Warning: i1: no DC value, transient time 0 value used

No. of Data Rows : 89
ymax                =  5.110771e+03 at=  2.371374e+07
cut                 =  3.913544e+07
Doing analysis at TEMP = 27.000000 and TNOM = 27.000000

Warning: i1: no DC value, transient time 0 value used

No. of Data Rows : 89
ymax                =  5.231006e+03 at=  2.371374e+07
cut                 =  3.883098e+07
Doing analysis at TEMP = 27.000000 and TNOM = 27.000000

Warning: i1: no DC value, transient time 0 value used

No. of Data Rows : 89
ymax                =  5.190494e+03 at=  2.371374e+07
cut                 =  3.869159e+07
Doing analysis at TEMP = 27.000000 and TNOM = 27.000000

Warning: i1: no DC value, transient time 0 value used

No. of Data Rows : 89
ymax                =  5.184972e+03 at=  2.371374e+07
cut                 =  3.878324e+07
Doing analysis at TEMP = 27.000000 and TNOM = 27.000000

Warning: i1: no DC value, transient time 0 value used

No. of Data Rows : 89
ymax                =  5.072435e+03 at=  2.371374e+07
cut                 =  3.917394e+07
Doing analysis at TEMP = 27.000000 and TNOM = 27.000000

Warning: i1: no DC value, transient time 0 value used

No. of Data Rows : 89
ymax                =  5.137696e+03 at=  2.371374e+07
cut                 =  3.911139e+07
Doing analysis at TEMP = 27.000000 and TNOM = 27.000000

Warning: i1: no DC value, transient time 0 value used

No. of Data Rows : 89
ymax                =  5.120539e+03 at=  2.371374e+07
cut                 =  3.878103e+07
Doing analysis at TEMP = 27.000000 and TNOM = 27.000000

Warning: i1: no DC value, transient time 0 value used

No. of Data Rows : 89
ymax                =  5.139587e+03 at=  2.371374e+07
cut                 =  3.862985e+07
Doing analysis at TEMP = 27.000000 and TNOM = 27.000000

Warning: i1: no DC value, transient time 0 value used

No. of Data Rows : 89
ymax                =  5.195415e+03 at=  2.371374e+07
cut                 =  3.841017e+07
Doing analysis at TEMP = 27.000000 and TNOM = 27.000000

Warning: i1: no DC value, transient time 0 value used

No. of Data Rows : 89
ymax                =  5.079816e+03 at=  2.371374e+07
cut                 =  3.920225e+07
Doing analysis at TEMP = 27.000000 and TNOM = 27.000000

Warning: i1: no DC value, transient time 0 value used

No. of Data Rows : 89
ymax                =  5.016583e+03 at=  2.371374e+07
cut                 =  3.907291e+07
Doing analysis at TEMP = 27.000000 and TNOM = 27.000000

Warning: i1: no DC value, transient time 0 value used

No. of Data Rows : 89
ymax                =  5.054880e+03 at=  2.371374e+07
cut                 =  3.916537e+07
Doing analysis at TEMP = 27.000000 and TNOM = 27.000000

Warning: i1: no DC value, transient time 0 value used

No. of Data Rows : 89
ymax                =  5.127226e+03 at=  2.371374e+07
cut                 =  3.904159e+07
Doing analysis at TEMP = 27.000000 and TNOM = 27.000000

Warning: i1: no DC value, transient time 0 value used

No. of Data Rows : 89
ymax                =  5.296843e+03 at=  2.371374e+07
cut                 =  3.778166e+07
Doing analysis at TEMP = 27.000000 and TNOM = 27.000000

Warning: i1: no DC value, transient time 0 value used

No. of Data Rows : 89
ymax                =  5.234854e+03 at=  2.371374e+07
cut                 =  3.832429e+07
Doing analysis at TEMP = 27.000000 and TNOM = 27.000000

Warning: i1: no DC value, transient time 0 value used

No. of Data Rows : 89
ymax                =  5.280325e+03 at=  2.371374e+07
cut                 =  3.863443e+07
Doing analysis at TEMP = 27.000000 and TNOM = 27.000000

Warning: i1: no DC value, transient time 0 value used

No. of Data Rows : 89
ymax                =  5.154188e+03 at=  2.371374e+07
cut                 =  3.885156e+07
Doing analysis at TEMP = 27.000000 and TNOM = 27.000000

Warning: i1: no DC value, transient time 0 value used

No. of Data Rows : 89
ymax                =  5.025370e+03 at=  2.371374e+07
cut                 =  3.929915e+07
Doing analysis at TEMP = 27.000000 and TNOM = 27.000000

Warning: i1: no DC value, transient time 0 value used

No. of Data Rows : 89
ymax                =  5.167947e+03 at=  2.371374e+07
cut                 =  3.867106e+07
Doing analysis at TEMP = 27.000000 and TNOM = 27.000000

Warning: i1: no DC value, transient time 0 value used

No. of Data Rows : 89
ymax                =  5.227120e+03 at=  2.371374e+07
cut                 =  3.889547e+07
Doing analysis at TEMP = 27.000000 and TNOM = 27.000000

Warning: i1: no DC value, transient time 0 value used

No. of Data Rows : 89
ymax                =  5.118155e+03 at=  2.371374e+07
cut                 =  3.876993e+07
Doing analysis at TEMP = 27.000000 and TNOM = 27.000000

Warning: i1: no DC value, transient time 0 value used

No. of Data Rows : 89
ymax                =  5.050485e+03 at=  2.371374e+07
cut                 =  3.885805e+07
Doing analysis at TEMP = 27.000000 and TNOM = 27.000000

Warning: i1: no DC value, transient time 0 value used

No. of Data Rows : 89
ymax                =  5.169028e+03 at=  2.371374e+07
cut                 =  3.887074e+07
Doing analysis at TEMP = 27.000000 and TNOM = 27.000000

Warning: i1: no DC value, transient time 0 value used

No. of Data Rows : 89
ymax                =  5.038607e+03 at=  2.371374e+07
cut                 =  3.944412e+07
Doing analysis at TEMP = 27.000000 and TNOM = 27.000000

Warning: i1: no DC value, transient time 0 value used

No. of Data Rows : 89
ymax                =  5.153241e+03 at=  2.371374e+07
cut                 =  3.889396e+07
Doing analysis at TEMP = 27.000000 and TNOM = 27.000000

Warning: i1: no DC value, transient time 0 value used

No. of Data Rows : 89
ymax                =  5.000165e+03 at=  2.371374e+07
cut                 =  3.921232e+07
Doing analysis at TEMP = 27.000000 and TNOM = 27.000000

Warning: i1: no DC value, transient time 0 value used

No. of Data Rows : 89
ymax                =  5.420333e+03 at=  2.371374e+07
cut                 =  3.767597e+07
Doing analysis at TEMP = 27.000000 and TNOM = 27.000000

Warning: i1: no DC value, transient time 0 value used

No. of Data Rows : 89
ymax                =  5.196900e+03 at=  2.371374e+07
cut                 =  3.865247e+07
Doing analysis at TEMP = 27.000000 and TNOM = 27.000000

Warning: i1: no DC value, transient time 0 value used

No. of Data Rows : 89
ymax                =  5.153268e+03 at=  2.371374e+07
cut                 =  3.864921e+07
Doing analysis at TEMP = 27.000000 and TNOM = 27.000000

Warning: i1: no DC value, transient time 0 value used

No. of Data Rows : 89
ymax                =  5.111996e+03 at=  2.371374e+07
cut                 =  3.929165e+07
Doing analysis at TEMP = 27.000000 and TNOM = 27.000000

Warning: i1: no DC value, transient time 0 value used

No. of Data Rows : 89
ymax                =  5.236172e+03 at=  2.371374e+07
cut                 =  3.863823e+07
Doing analysis at TEMP = 27.000000 and TNOM = 27.000000

Warning: i1: no DC value, transient time 0 value used

No. of Data Rows : 89
ymax                =  5.208645e+03 at=  2.371374e+07
cut                 =  3.857302e+07
Doing analysis at TEMP = 27.000000 and TNOM = 27.000000

Warning: i1: no DC value, transient time 0 value used

No. of Data Rows : 89
ymax                =  5.061056e+03 at=  2.371374e+07
cut                 =  3.941752e+07
Doing analysis at TEMP = 27.000000 and TNOM = 27.000000

Warning: i1: no DC value, transient time 0 value used

No. of Data Rows : 89
ymax                =  5.061301e+03 at=  2.371374e+07
cut                 =  3.903438e+07
Doing analysis at TEMP = 27.000000 and TNOM = 27.000000

Warning: i1: no DC value, transient time 0 value used

No. of Data Rows : 89
ymax                =  5.558519e+03 at=  2.371374e+07
cut                 =  3.745609e+07
Doing analysis at TEMP = 27.000000 and TNOM = 27.000000

Warning: i1: no DC value, transient time 0 value used

No. of Data Rows : 89
ymax                =  5.218631e+03 at=  2.371374e+07
cut                 =  3.857969e+07
Doing analysis at TEMP = 27.000000 and TNOM = 27.000000

Warning: i1: no DC value, transient time 0 value used

No. of Data Rows : 89
ymax                =  4.998844e+03 at=  2.371374e+07
cut                 =  3.980313e+07
Doing analysis at TEMP = 27.000000 and TNOM = 27.000000

Warning: i1: no DC value, transient time 0 value used

No. of Data Rows : 89
ymax                =  5.037424e+03 at=  2.371374e+07
cut                 =  3.933504e+07
Doing analysis at TEMP = 27.000000 and TNOM = 27.000000

Warning: i1: no DC value, transient time 0 value used

No. of Data Rows : 89
ymax                =  5.219528e+03 at=  2.371374e+07
cut                 =  3.857429e+07
Doing analysis at TEMP = 27.000000 and TNOM = 27.000000

Warning: i1: no DC value, transient time 0 value used

No. of Data Rows : 89
ymax                =  5.082131e+03 at=  2.371374e+07
cut                 =  3.933959e+07
Doing analysis at TEMP = 27.000000 and TNOM = 27.000000

Warning: i1: no DC value, transient time 0 value used

No. of Data Rows : 89
ymax                =  5.090597e+03 at=  2.371374e+07
cut                 =  3.887799e+07
Doing analysis at TEMP = 27.000000 and TNOM = 27.000000

Warning: i1: no DC value, transient time 0 value used

No. of Data Rows : 89
ymax                =  5.092459e+03 at=  2.371374e+07
cut                 =  3.908119e+07
Doing analysis at TEMP = 27.000000 and TNOM = 27.000000

Warning: i1: no DC value, transient time 0 value used

No. of Data Rows : 89
ymax                =  5.232089e+03 at=  2.371374e+07
cut                 =  3.854820e+07
Doing analysis at TEMP = 27.000000 and TNOM = 27.000000

Warning: i1: no DC value, transient time 0 value used

No. of Data Rows : 89
ymax                =  5.203118e+03 at=  2.371374e+07
cut                 =  3.857407e+07
Doing analysis at TEMP = 27.000000 and TNOM = 27.000000

Warning: i1: no DC value, transient time 0 value used

No. of Data Rows : 89
ymax                =  5.149383e+03 at=  2.371374e+07
cut                 =  3.872597e+07
Doing analysis at TEMP = 27.000000 and TNOM = 27.000000

Warning: i1: no DC value, transient time 0 value used

No. of Data Rows : 89
ymax                =  5.273010e+03 at=  2.371374e+07
cut                 =  3.846555e+07
Doing analysis at TEMP = 27.000000 and TNOM = 27.000000

Warning: i1: no DC value, transient time 0 value used

No. of Data Rows : 89
ymax                =  5.202011e+03 at=  2.371374e+07
cut                 =  3.849644e+07
Doing analysis at TEMP = 27.000000 and TNOM = 27.000000

Warning: i1: no DC value, transient time 0 value used

No. of Data Rows : 89
ymax                =  5.180843e+03 at=  2.371374e+07
cut                 =  3.906511e+07
Doing analysis at TEMP = 27.000000 and TNOM = 27.000000

Warning: i1: no DC value, transient time 0 value used

No. of Data Rows : 89
ymax                =  5.112573e+03 at=  2.371374e+07
cut                 =  3.906614e+07
Doing analysis at TEMP = 27.000000 and TNOM = 27.000000

Warning: i1: no DC value, transient time 0 value used

No. of Data Rows : 89
ymax                =  5.141837e+03 at=  2.371374e+07
cut                 =  3.928568e+07
Doing analysis at TEMP = 27.000000 and TNOM = 27.000000

Warning: i1: no DC value, transient time 0 value used

No. of Data Rows : 89
ymax                =  5.149878e+03 at=  2.371374e+07
cut                 =  3.873136e+07
Doing analysis at TEMP = 27.000000 and TNOM = 27.000000

Warning: i1: no DC value, transient time 0 value used

No. of Data Rows : 89
ymax                =  5.245134e+03 at=  2.371374e+07
cut                 =  3.866931e+07
Doing analysis at TEMP = 27.000000 and TNOM = 27.000000

Warning: i1: no DC value, transient time 0 value used

No. of Data Rows : 89
ymax                =  4.981815e+03 at=  2.371374e+07
cut                 =  3.944181e+07
Doing analysis at TEMP = 27.000000 and TNOM = 27.000000

Warning: i1: no DC value, transient time 0 value used

No. of Data Rows : 89
ymax                =  5.068373e+03 at=  2.371374e+07
cut                 =  3.895210e+07
Doing analysis at TEMP = 27.000000 and TNOM = 27.000000

Warning: i1: no DC value, transient time 0 value used

No. of Data Rows : 89
ymax                =  5.197634e+03 at=  2.371374e+07
cut                 =  3.898990e+07
Doing analysis at TEMP = 27.000000 and TNOM = 27.000000

Warning: i1: no DC value, transient time 0 value used

No. of Data Rows : 89
ymax                =  5.276218e+03 at=  2.371374e+07
cut                 =  3.831785e+07
Doing analysis at TEMP = 27.000000 and TNOM = 27.000000

Warning: i1: no DC value, transient time 0 value used

No. of Data Rows : 89
ymax                =  5.175825e+03 at=  2.371374e+07
cut                 =  3.869993e+07
Doing analysis at TEMP = 27.000000 and TNOM = 27.000000

Warning: i1: no DC value, transient time 0 value used

No. of Data Rows : 89
ymax                =  5.269036e+03 at=  2.371374e+07
cut                 =  3.878131e+07
Doing analysis at TEMP = 27.000000 and TNOM = 27.000000

Warning: i1: no DC value, transient time 0 value used

No. of Data Rows : 89
ymax                =  5.003893e+03 at=  2.371374e+07
cut                 =  3.893384e+07
Doing analysis at TEMP = 27.000000 and TNOM = 27.000000

Warning: i1: no DC value, transient time 0 value used

No. of Data Rows : 89
ymax                =  5.363230e+03 at=  2.371374e+07
cut                 =  3.830120e+07
Doing analysis at TEMP = 27.000000 and TNOM = 27.000000

Warning: i1: no DC value, transient time 0 value used

No. of Data Rows : 89
ymax                =  5.227981e+03 at=  2.371374e+07
cut                 =  3.852495e+07
Doing analysis at TEMP = 27.000000 and TNOM = 27.000000

Warning: i1: no DC value, transient time 0 value used

No. of Data Rows : 89
ymax                =  5.396935e+03 at=  2.371374e+07
cut                 =  3.793762e+07
Doing analysis at TEMP = 27.000000 and TNOM = 27.000000

Warning: i1: no DC value, transient time 0 value used

No. of Data Rows : 89
ymax                =  5.249020e+03 at=  2.371374e+07
cut                 =  3.850609e+07
Doing analysis at TEMP = 27.000000 and TNOM = 27.000000

Warning: i1: no DC value, transient time 0 value used

No. of Data Rows : 89
ymax                =  5.113936e+03 at=  2.371374e+07
cut                 =  3.901045e+07
Doing analysis at TEMP = 27.000000 and TNOM = 27.000000

Warning: i1: no DC value, transient time 0 value used

No. of Data Rows : 89
ymax                =  5.045604e+03 at=  2.371374e+07
cut                 =  3.918346e+07
Doing analysis at TEMP = 27.000000 and TNOM = 27.000000

Warning: i1: no DC value, transient time 0 value used

No. of Data Rows : 89
ymax                =  5.313403e+03 at=  2.371374e+07
cut                 =  3.861984e+07
Doing analysis at TEMP = 27.000000 and TNOM = 27.000000

Warning: i1: no DC value, transient time 0 value used

No. of Data Rows : 89
ymax                =  5.204476e+03 at=  2.371374e+07
cut                 =  3.875587e+07
Doing analysis at TEMP = 27.000000 and TNOM = 27.000000

Warning: i1: no DC value, transient time 0 value used

No. of Data Rows : 89
ymax                =  5.183293e+03 at=  2.371374e+07
cut                 =  3.885374e+07
Doing analysis at TEMP = 27.000000 and TNOM = 27.000000

Warning: i1: no DC value, transient time 0 value used

No. of Data Rows : 89
ymax                =  5.206294e+03 at=  2.371374e+07
cut                 =  3.865482e+07
Doing analysis at TEMP = 27.000000 and TNOM = 27.000000

Warning: i1: no DC value, transient time 0 value used

No. of Data Rows : 89
ymax                =  4.991855e+03 at=  2.371374e+07
cut                 =  3.889638e+07
Doing analysis at TEMP = 27.000000 and TNOM = 27.000000

Warning: i1: no DC value, transient time 0 value used

No. of Data Rows : 89
ymax                =  5.296226e+03 at=  2.371374e+07
cut                 =  3.833054e+07
Doing analysis at TEMP = 27.000000 and TNOM = 27.000000

Warning: i1: no DC value, transient time 0 value used

No. of Data Rows : 89
ymax                =  5.235212e+03 at=  2.371374e+07
cut                 =  3.838894e+07
Doing analysis at TEMP = 27.000000 and TNOM = 27.000000

Warning: i1: no DC value, transient time 0 value used

No. of Data Rows : 89
ymax                =  5.205103e+03 at=  2.371374e+07
cut                 =  3.823429e+07
Doing analysis at TEMP = 27.000000 and TNOM = 27.000000

Warning: i1: no DC value, transient time 0 value used

No. of Data Rows : 89
ymax                =  4.895027e+03 at=  2.371374e+07
cut                 =  3.960093e+07
Doing analysis at TEMP = 27.000000 and TNOM = 27.000000

Warning: i1: no DC value, transient time 0 value used

No. of Data Rows : 89
ymax                =  5.184193e+03 at=  2.371374e+07
cut                 =  3.832771e+07
Doing analysis at TEMP = 27.000000 and TNOM = 27.000000

Warning: i1: no DC value, transient time 0 value used

No. of Data Rows : 89
ymax                =  5.203044e+03 at=  2.371374e+07
cut                 =  3.876168e+07
Doing analysis at TEMP = 27.000000 and TNOM = 27.000000

Warning: i1: no DC value, transient time 0 value used

No. of Data Rows : 89
ymax                =  5.241912e+03 at=  2.371374e+07
cut                 =  3.875958e+07
Doing analysis at TEMP = 27.000000 and TNOM = 27.000000

Warning: i1: no DC value, transient time 0 value used

No. of Data Rows : 89
ymax                =  5.148170e+03 at=  2.371374e+07
cut                 =  3.853453e+07
Doing analysis at TEMP = 27.000000 and TNOM = 27.000000

Warning: i1: no DC value, transient time 0 value used

No. of Data Rows : 89
ymax                =  5.144355e+03 at=  2.371374e+07
cut                 =  3.876148e+07
Doing analysis at TEMP = 27.000000 and TNOM = 27.000000

Warning: i1: no DC value, transient time 0 value used

No. of Data Rows : 89
ymax                =  5.230205e+03 at=  2.371374e+07
cut                 =  3.828698e+07
Doing analysis at TEMP = 27.000000 and TNOM = 27.000000

Warning: i1: no DC value, transient time 0 value used

No. of Data Rows : 89
ymax                =  5.083002e+03 at=  2.371374e+07
cut                 =  3.927260e+07
Doing analysis at TEMP = 27.000000 and TNOM = 27.000000

Warning: i1: no DC value, transient time 0 value used

No. of Data Rows : 89
ymax                =  5.293186e+03 at=  2.371374e+07
cut                 =  3.849539e+07
Doing analysis at TEMP = 27.000000 and TNOM = 27.000000

Warning: i1: no DC value, transient time 0 value used

No. of Data Rows : 89
ymax                =  5.183381e+03 at=  2.371374e+07
cut                 =  3.881338e+07
Doing analysis at TEMP = 27.000000 and TNOM = 27.000000

Warning: i1: no DC value, transient time 0 value used

No. of Data Rows : 89
ymax                =  5.030449e+03 at=  2.371374e+07
cut                 =  3.915738e+07
Doing analysis at TEMP = 27.000000 and TNOM = 27.000000

Warning: i1: no DC value, transient time 0 value used

No. of Data Rows : 89
ymax                =  5.247288e+03 at=  2.371374e+07
cut                 =  3.846175e+07
Doing analysis at TEMP = 27.000000 and TNOM = 27.000000

Warning: i1: no DC value, transient time 0 value used

No. of Data Rows : 89
ymax                =  5.171662e+03 at=  2.371374e+07
cut                 =  3.875910e+07
Doing analysis at TEMP = 27.000000 and TNOM = 27.000000

Warning: i1: no DC value, transient time 0 value used

No. of Data Rows : 89
ymax                =  5.015376e+03 at=  2.371374e+07
cut                 =  3.923862e+07
Doing analysis at TEMP = 27.000000 and TNOM = 27.000000

Warning: i1: no DC value, transient time 0 value used

No. of Data Rows : 89
ymax                =  5.262812e+03 at=  2.371374e+07
cut                 =  3.838817e+07
Doing analysis at TEMP = 27.000000 and TNOM = 27.000000

Warning: i1: no DC value, transient time 0 value used

No. of Data Rows : 89
ymax                =  5.104923e+03 at=  2.371374e+07
cut                 =  3.861407e+07
Doing analysis at TEMP = 27.000000 and TNOM = 27.000000

Warning: i1: no DC value, transient time 0 value used

No. of Data Rows : 89
ymax                =  5.260248e+03 at=  2.371374e+07
cut                 =  3.850312e+07
Doing analysis at TEMP = 27.000000 and TNOM = 27.000000

Warning: i1: no DC value, transient time 0 value used

No. of Data Rows : 89
ymax                =  5.051616e+03 at=  2.371374e+07
cut                 =  3.913344e+07
Doing analysis at TEMP = 27.000000 and TNOM = 27.000000

Warning: i1: no DC value, transient time 0 value used

No. of Data Rows : 89
ymax                =  5.068301e+03 at=  2.371374e+07
cut                 =  3.875266e+07
Note: No ".plot", ".print", or ".fourier" lines; no simulations run
