
No compatibility mode selected!


Circuit: lpf

Doing analysis at TEMP = 27.000000 and TNOM = 27.000000


No. of Data Rows : 349
ymax                =  1.000000e+00 at=  1.412538e-01
cut                 =  5.161882e+06
Doing analysis at TEMP = 27.000000 and TNOM = 27.000000


No. of Data Rows : 349
ymax                =  1.000000e+00 at=  1.412538e-01
cut                 =  5.214507e+06
Doing analysis at TEMP = 27.000000 and TNOM = 27.000000


No. of Data Rows : 349
ymax                =  1.000000e+00 at=  1.412538e-01
cut                 =  5.277293e+06
Doing analysis at TEMP = 27.000000 and TNOM = 27.000000


No. of Data Rows : 349
ymax                =  1.000000e+00 at=  1.333521e-01
cut                 =  5.004856e+06
Doing analysis at TEMP = 27.000000 and TNOM = 27.000000


No. of Data Rows : 349
ymax                =  1.000000e+00 at=  1.412538e-01
cut                 =  5.044027e+06
Doing analysis at TEMP = 27.000000 and TNOM = 27.000000


No. of Data Rows : 349
ymax                =  1.000000e+00 at=  1.412538e-01
cut                 =  5.145443e+06
Doing analysis at TEMP = 27.000000 and TNOM = 27.000000


No. of Data Rows : 349
ymax                =  1.000000e+00 at=  1.412538e-01
cut                 =  5.070476e+06
Doing analysis at TEMP = 27.000000 and TNOM = 27.000000


No. of Data Rows : 349
ymax                =  1.000000e+00 at=  1.412538e-01
cut                 =  5.244944e+06
Doing analysis at TEMP = 27.000000 and TNOM = 27.000000


No. of Data Rows : 349
ymax                =  1.000000e+00 at=  1.412538e-01
cut                 =  5.079187e+06
Doing analysis at TEMP = 27.000000 and TNOM = 27.000000


No. of Data Rows : 349
ymax                =  1.000000e+00 at=  1.412538e-01
cut                 =  5.230191e+06
Doing analysis at TEMP = 27.000000 and TNOM = 27.000000


No. of Data Rows : 349
ymax                =  1.000000e+00 at=  1.333521e-01
cut                 =  4.995939e+06
Doing analysis at TEMP = 27.000000 and TNOM = 27.000000


No. of Data Rows : 349
ymax                =  1.000000e+00 at=  1.412538e-01
cut                 =  5.067491e+06
Doing analysis at TEMP = 27.000000 and TNOM = 27.000000


No. of Data Rows : 349
ymax                =  1.000000e+00 at=  1.412538e-01
cut                 =  5.098018e+06
Doing analysis at TEMP = 27.000000 and TNOM = 27.000000


No. of Data Rows : 349
ymax                =  1.000000e+00 at=  1.412538e-01
cut                 =  5.060203e+06
Doing analysis at TEMP = 27.000000 and TNOM = 27.000000


No. of Data Rows : 349
ymax                =  1.000000e+00 at=  1.412538e-01
cut                 =  5.149267e+06
Doing analysis at TEMP = 27.000000 and TNOM = 27.000000


No. of Data Rows : 349
ymax                =  1.000000e+00 at=  1.412538e-01
cut                 =  5.235540e+06
Doing analysis at TEMP = 27.000000 and TNOM = 27.000000


No. of Data Rows : 349
ymax                =  1.000000e+00 at=  1.412538e-01
cut                 =  5.251703e+06
Doing analysis at TEMP = 27.000000 and TNOM = 27.000000


No. of Data Rows : 349
ymax                =  1.000000e+00 at=  1.412538e-01
cut                 =  5.062108e+06
Doing analysis at TEMP = 27.000000 and TNOM = 27.000000


No. of Data Rows : 349
ymax                =  1.000000e+00 at=  1.412538e-01
cut                 =  5.216215e+06
Doing analysis at TEMP = 27.000000 and TNOM = 27.000000


No. of Data Rows : 349
ymax                =  1.000000e+00 at=  1.333521e-01
cut                 =  4.991631e+06
Doing analysis at TEMP = 27.000000 and TNOM = 27.000000


No. of Data Rows : 349
ymax                =  1.000000e+00 at=  1.412538e-01
cut                 =  5.216176e+06
Doing analysis at TEMP = 27.000000 and TNOM = 27.000000


No. of Data Rows : 349
ymax                =  1.000000e+00 at=  1.412538e-01
cut                 =  5.080104e+06
Doing analysis at TEMP = 27.000000 and TNOM = 27.000000


No. of Data Rows : 349
ymax                =  1.000000e+00 at=  1.412538e-01
cut                 =  5.102670e+06
Doing analysis at TEMP = 27.000000 and TNOM = 27.000000


No. of Data Rows : 349
ymax                =  1.000000e+00 at=  1.333521e-01
cut                 =  4.955334e+06
Doing analysis at TEMP = 27.000000 and TNOM = 27.000000


No. of Data Rows : 349
ymax                =  1.000000e+00 at=  1.412538e-01
cut                 =  5.259676e+06
Doing analysis at TEMP = 27.000000 and TNOM = 27.000000


No. of Data Rows : 349
ymax                =  1.000000e+00 at=  1.412538e-01
cut                 =  5.158711e+06
Doing analysis at TEMP = 27.000000 and TNOM = 27.000000


No. of Data Rows : 349
ymax                =  1.000000e+00 at=  1.412538e-01
cut                 =  5.236775e+06
Doing analysis at TEMP = 27.000000 and TNOM = 27.000000


No. of Data Rows : 349
ymax                =  1.000000e+00 at=  1.412538e-01
cut                 =  5.125543e+06
Doing analysis at TEMP = 27.000000 and TNOM = 27.000000


No. of Data Rows : 349
ymax                =  1.000000e+00 at=  1.412538e-01
cut                 =  5.123595e+06
Doing analysis at TEMP = 27.000000 and TNOM = 27.000000


No. of Data Rows : 349
ymax                =  1.000000e+00 at=  1.333521e-01
cut                 =  4.982648e+06
Doing analysis at TEMP = 27.000000 and TNOM = 27.000000


No. of Data Rows : 349
ymax                =  1.000000e+00 at=  1.412538e-01
cut                 =  5.151594e+06
Doing analysis at TEMP = 27.000000 and TNOM = 27.000000


No. of Data Rows : 349
ymax                =  1.000000e+00 at=  1.412538e-01
cut                 =  5.268921e+06
Doing analysis at TEMP = 27.000000 and TNOM = 27.000000


No. of Data Rows : 349
ymax                =  1.000000e+00 at=  1.412538e-01
cut                 =  5.095811e+06
Doing analysis at TEMP = 27.000000 and TNOM = 27.000000


No. of Data Rows : 349
ymax                =  1.000000e+00 at=  1.412538e-01
cut                 =  5.253656e+06
Doing analysis at TEMP = 27.000000 and TNOM = 27.000000


No. of Data Rows : 349
ymax                =  1.000000e+00 at=  1.412538e-01
cut                 =  5.072144e+06
Doing analysis at TEMP = 27.000000 and TNOM = 27.000000


No. of Data Rows : 349
ymax                =  1.000000e+00 at=  1.412538e-01
cut                 =  5.105125e+06
Doing analysis at TEMP = 27.000000 and TNOM = 27.000000


No. of Data Rows : 349
ymax                =  1.000000e+00 at=  1.412538e-01
cut                 =  5.040453e+06
Doing analysis at TEMP = 27.000000 and TNOM = 27.000000


No. of Data Rows : 349
ymax                =  1.000000e+00 at=  1.412538e-01
cut                 =  5.122611e+06
Doing analysis at TEMP = 27.000000 and TNOM = 27.000000


No. of Data Rows : 349
ymax                =  1.000000e+00 at=  1.412538e-01
cut                 =  5.153319e+06
Doing analysis at TEMP = 27.000000 and TNOM = 27.000000


No. of Data Rows : 349
ymax                =  1.000000e+00 at=  1.412538e-01
cut                 =  5.177565e+06
Doing analysis at TEMP = 27.000000 and TNOM = 27.000000


No. of Data Rows : 349
ymax                =  1.000000e+00 at=  1.412538e-01
cut                 =  5.049560e+06
Doing analysis at TEMP = 27.000000 and TNOM = 27.000000


No. of Data Rows : 349
ymax                =  1.000000e+00 at=  1.412538e-01
cut                 =  5.236311e+06
Doing analysis at TEMP = 27.000000 and TNOM = 27.000000


No. of Data Rows : 349
ymax                =  1.000000e+00 at=  1.333521e-01
cut                 =  5.000029e+06
Doing analysis at TEMP = 27.000000 and TNOM = 27.000000


No. of Data Rows : 349
ymax                =  1.000000e+00 at=  1.412538e-01
cut                 =  5.128681e+06
Doing analysis at TEMP = 27.000000 and TNOM = 27.000000


No. of Data Rows : 349
ymax                =  1.000000e+00 at=  1.412538e-01
cut                 =  5.084678e+06
Doing analysis at TEMP = 27.000000 and TNOM = 27.000000


No. of Data Rows : 349
ymax                =  1.000000e+00 at=  1.412538e-01
cut                 =  5.173443e+06
Doing analysis at TEMP = 27.000000 and TNOM = 27.000000


No. of Data Rows : 349
ymax                =  1.000000e+00 at=  1.412538e-01
cut                 =  5.154595e+06
Doing analysis at TEMP = 27.000000 and TNOM = 27.000000


No. of Data Rows : 349
ymax                =  1.000000e+00 at=  1.496236e-01
cut                 =  5.344309e+06
Doing analysis at TEMP = 27.000000 and TNOM = 27.000000


No. of Data Rows : 349
ymax                =  1.000000e+00 at=  1.412538e-01
cut                 =  5.147267e+06
Doing analysis at TEMP = 27.000000 and TNOM = 27.000000


No. of Data Rows : 349
ymax                =  1.000000e+00 at=  1.412538e-01
cut                 =  5.191030e+06
Doing analysis at TEMP = 27.000000 and TNOM = 27.000000


No. of Data Rows : 349
ymax                =  1.000000e+00 at=  1.412538e-01
cut                 =  5.057222e+06
Doing analysis at TEMP = 27.000000 and TNOM = 27.000000


No. of Data Rows : 349
ymax                =  1.000000e+00 at=  1.333521e-01
cut                 =  4.954911e+06
Doing analysis at TEMP = 27.000000 and TNOM = 27.000000


No. of Data Rows : 349
ymax                =  1.000000e+00 at=  1.333521e-01
cut                 =  5.007278e+06
Doing analysis at TEMP = 27.000000 and TNOM = 27.000000


No. of Data Rows : 349
ymax                =  1.000000e+00 at=  1.412538e-01
cut                 =  5.178281e+06
Doing analysis at TEMP = 27.000000 and TNOM = 27.000000


No. of Data Rows : 349
ymax                =  1.000000e+00 at=  1.412538e-01
cut                 =  5.168322e+06
Doing analysis at TEMP = 27.000000 and TNOM = 27.000000


No. of Data Rows : 349
ymax                =  1.000000e+00 at=  1.412538e-01
cut                 =  5.049489e+06
Doing analysis at TEMP = 27.000000 and TNOM = 27.000000


No. of Data Rows : 349
ymax                =  1.000000e+00 at=  1.333521e-01
cut                 =  4.946908e+06
Doing analysis at TEMP = 27.000000 and TNOM = 27.000000


No. of Data Rows : 349
ymax                =  1.000000e+00 at=  1.412538e-01
cut                 =  5.054095e+06
Doing analysis at TEMP = 27.000000 and TNOM = 27.000000


No. of Data Rows : 349
ymax                =  1.000000e+00 at=  1.412538e-01
cut                 =  5.140112e+06
Doing analysis at TEMP = 27.000000 and TNOM = 27.000000


No. of Data Rows : 349
ymax                =  1.000000e+00 at=  1.412538e-01
cut                 =  5.060090e+06
Doing analysis at TEMP = 27.000000 and TNOM = 27.000000


No. of Data Rows : 349
ymax                =  1.000000e+00 at=  1.412538e-01
cut                 =  5.117519e+06
Doing analysis at TEMP = 27.000000 and TNOM = 27.000000


No. of Data Rows : 349
ymax                =  1.000000e+00 at=  1.412538e-01
cut                 =  5.049974e+06
Doing analysis at TEMP = 27.000000 and TNOM = 27.000000


No. of Data Rows : 349
ymax                =  1.000000e+00 at=  1.412538e-01
cut                 =  5.066397e+06
Doing analysis at TEMP = 27.000000 and TNOM = 27.000000


No. of Data Rows : 349
ymax                =  1.000000e+00 at=  1.412538e-01
cut                 =  5.270946e+06
Doing analysis at TEMP = 27.000000 and TNOM = 27.000000


No. of Data Rows : 349
ymax                =  1.000000e+00 at=  1.412538e-01
cut                 =  5.171717e+06
Doing analysis at TEMP = 27.000000 and TNOM = 27.000000


No. of Data Rows : 349
ymax                =  1.000000e+00 at=  1.412538e-01
cut                 =  5.171797e+06
Doing analysis at TEMP = 27.000000 and TNOM = 27.000000


No. of Data Rows : 349
ymax                =  1.000000e+00 at=  1.412538e-01
cut                 =  5.098473e+06
Doing analysis at TEMP = 27.000000 and TNOM = 27.000000


No. of Data Rows : 349
ymax                =  1.000000e+00 at=  1.333521e-01
cut                 =  5.030780e+06
Doing analysis at TEMP = 27.000000 and TNOM = 27.000000


No. of Data Rows : 349
ymax                =  1.000000e+00 at=  1.412538e-01
cut                 =  5.263097e+06
Doing analysis at TEMP = 27.000000 and TNOM = 27.000000


No. of Data Rows : 349
ymax                =  1.000000e+00 at=  1.333521e-01
cut                 =  4.993721e+06
Doing analysis at TEMP = 27.000000 and TNOM = 27.000000


No. of Data Rows : 349
ymax                =  1.000000e+00 at=  1.412538e-01
cut                 =  5.216851e+06
Doing analysis at TEMP = 27.000000 and TNOM = 27.000000


No. of Data Rows : 349
ymax                =  1.000000e+00 at=  1.412538e-01
cut                 =  5.107629e+06
Doing analysis at TEMP = 27.000000 and TNOM = 27.000000


No. of Data Rows : 349
ymax                =  1.000000e+00 at=  1.496236e-01
cut                 =  5.377201e+06
Doing analysis at TEMP = 27.000000 and TNOM = 27.000000


No. of Data Rows : 349
ymax                =  1.000000e+00 at=  1.412538e-01
cut                 =  5.124629e+06
Doing analysis at TEMP = 27.000000 and TNOM = 27.000000


No. of Data Rows : 349
ymax                =  1.000000e+00 at=  1.412538e-01
cut                 =  5.159349e+06
Doing analysis at TEMP = 27.000000 and TNOM = 27.000000


No. of Data Rows : 349
ymax                =  1.000000e+00 at=  1.412538e-01
cut                 =  5.135682e+06
Doing analysis at TEMP = 27.000000 and TNOM = 27.000000


No. of Data Rows : 349
ymax                =  1.000000e+00 at=  1.412538e-01
cut                 =  5.040565e+06
Doing analysis at TEMP = 27.000000 and TNOM = 27.000000


No. of Data Rows : 349
ymax                =  1.000000e+00 at=  1.412538e-01
cut                 =  5.078608e+06
Doing analysis at TEMP = 27.000000 and TNOM = 27.000000


No. of Data Rows : 349
ymax                =  1.000000e+00 at=  1.333521e-01
cut                 =  5.031183e+06
Doing analysis at TEMP = 27.000000 and TNOM = 27.000000


No. of Data Rows : 349
ymax                =  1.000000e+00 at=  1.412538e-01
cut                 =  5.101661e+06
Doing analysis at TEMP = 27.000000 and TNOM = 27.000000


No. of Data Rows : 349
ymax                =  1.000000e+00 at=  1.412538e-01
cut                 =  5.221854e+06
Doing analysis at TEMP = 27.000000 and TNOM = 27.000000


No. of Data Rows : 349
ymax                =  1.000000e+00 at=  1.412538e-01
cut                 =  5.045275e+06
Doing analysis at TEMP = 27.000000 and TNOM = 27.000000


No. of Data Rows : 349
ymax                =  1.000000e+00 at=  1.412538e-01
cut                 =  5.092319e+06
Doing analysis at TEMP = 27.000000 and TNOM = 27.000000


No. of Data Rows : 349
ymax                =  1.000000e+00 at=  1.412538e-01
cut                 =  5.038909e+06
Doing analysis at TEMP = 27.000000 and TNOM = 27.000000


No. of Data Rows : 349
ymax                =  1.000000e+00 at=  1.412538e-01
cut                 =  5.122351e+06
Doing analysis at TEMP = 27.000000 and TNOM = 27.000000


No. of Data Rows : 349
ymax                =  1.000000e+00 at=  1.412538e-01
cut                 =  5.148642e+06
Doing analysis at TEMP = 27.000000 and TNOM = 27.000000


No. of Data Rows : 349
ymax                =  1.000000e+00 at=  1.412538e-01
cut                 =  5.272427e+06
Doing analysis at TEMP = 27.000000 and TNOM = 27.000000


No. of Data Rows : 349
ymax                =  1.000000e+00 at=  1.412538e-01
cut                 =  5.081999e+06
Doing analysis at TEMP = 27.000000 and TNOM = 27.000000


No. of Data Rows : 349
ymax                =  1.000000e+00 at=  1.412538e-01
cut                 =  5.172821e+06
Doing analysis at TEMP = 27.000000 and TNOM = 27.000000


No. of Data Rows : 349
ymax                =  1.000000e+00 at=  1.412538e-01
cut                 =  5.074316e+06
Doing analysis at TEMP = 27.000000 and TNOM = 27.000000


No. of Data Rows : 349
ymax                =  1.000000e+00 at=  1.412538e-01
cut                 =  5.274957e+06
Doing analysis at TEMP = 27.000000 and TNOM = 27.000000


No. of Data Rows : 349
ymax                =  1.000000e+00 at=  1.412538e-01
cut                 =  5.133880e+06
Doing analysis at TEMP = 27.000000 and TNOM = 27.000000


No. of Data Rows : 349
ymax                =  1.000000e+00 at=  1.333521e-01
cut                 =  4.968580e+06
Doing analysis at TEMP = 27.000000 and TNOM = 27.000000


No. of Data Rows : 349
ymax                =  1.000000e+00 at=  1.412538e-01
cut                 =  5.194299e+06
Doing analysis at TEMP = 27.000000 and TNOM = 27.000000


No. of Data Rows : 349
ymax                =  1.000000e+00 at=  1.412538e-01
cut                 =  5.249993e+06
Doing analysis at TEMP = 27.000000 and TNOM = 27.000000


No. of Data Rows : 349
ymax                =  1.000000e+00 at=  1.333521e-01
cut                 =  5.007296e+06
Doing analysis at TEMP = 27.000000 and TNOM = 27.000000


No. of Data Rows : 349
ymax                =  1.000000e+00 at=  1.333521e-01
cut                 =  5.006994e+06
Doing analysis at TEMP = 27.000000 and TNOM = 27.000000


No. of Data Rows : 349
ymax                =  1.000000e+00 at=  1.412538e-01
cut                 =  5.224580e+06
Doing analysis at TEMP = 27.000000 and TNOM = 27.000000


No. of Data Rows : 349
ymax                =  1.000000e+00 at=  1.333521e-01
cut                 =  5.039972e+06
Doing analysis at TEMP = 27.000000 and TNOM = 27.000000


No. of Data Rows : 349
ymax                =  1.000000e+00 at=  1.412538e-01
cut                 =  5.100412e+06
Doing analysis at TEMP = 27.000000 and TNOM = 27.000000


No. of Data Rows : 349
ymax                =  1.000000e+00 at=  1.412538e-01
cut                 =  5.105212e+06
Doing analysis at TEMP = 27.000000 and TNOM = 27.000000


No. of Data Rows : 349
ymax                =  1.000000e+00 at=  1.412538e-01
cut                 =  5.198310e+06
Doing analysis at TEMP = 27.000000 and TNOM = 27.000000


No. of Data Rows : 349
ymax                =  1.000000e+00 at=  1.333521e-01
cut                 =  5.020624e+06
Doing analysis at TEMP = 27.000000 and TNOM = 27.000000


No. of Data Rows : 349
ymax                =  1.000000e+00 at=  1.412538e-01
cut                 =  5.120249e+06
Doing analysis at TEMP = 27.000000 and TNOM = 27.000000


No. of Data Rows : 349
ymax                =  1.000000e+00 at=  1.412538e-01
cut                 =  5.169893e+06
Doing analysis at TEMP = 27.000000 and TNOM = 27.000000


No. of Data Rows : 349
ymax                =  1.000000e+00 at=  1.412538e-01
cut                 =  5.128750e+06
Doing analysis at TEMP = 27.000000 and TNOM = 27.000000


No. of Data Rows : 349
ymax                =  1.000000e+00 at=  1.412538e-01
cut                 =  5.159548e+06
Doing analysis at TEMP = 27.000000 and TNOM = 27.000000


No. of Data Rows : 349
ymax                =  1.000000e+00 at=  1.412538e-01
cut                 =  5.291704e+06
Doing analysis at TEMP = 27.000000 and TNOM = 27.000000


No. of Data Rows : 349
ymax                =  1.000000e+00 at=  1.412538e-01
cut                 =  5.030381e+06
Doing analysis at TEMP = 27.000000 and TNOM = 27.000000


No. of Data Rows : 349
ymax                =  1.000000e+00 at=  1.412538e-01
cut                 =  5.175172e+06
Doing analysis at TEMP = 27.000000 and TNOM = 27.000000


No. of Data Rows : 349
ymax                =  1.000000e+00 at=  1.412538e-01
cut                 =  5.257347e+06
Doing analysis at TEMP = 27.000000 and TNOM = 27.000000


No. of Data Rows : 349
ymax                =  1.000000e+00 at=  1.412538e-01
cut                 =  5.034218e+06
Doing analysis at TEMP = 27.000000 and TNOM = 27.000000


No. of Data Rows : 349
ymax                =  1.000000e+00 at=  1.412538e-01
cut                 =  5.155869e+06
Doing analysis at TEMP = 27.000000 and TNOM = 27.000000


No. of Data Rows : 349
ymax                =  1.000000e+00 at=  1.412538e-01
cut                 =  5.260433e+06
Doing analysis at TEMP = 27.000000 and TNOM = 27.000000


No. of Data Rows : 349
ymax                =  1.000000e+00 at=  1.412538e-01
cut                 =  5.079463e+06
Doing analysis at TEMP = 27.000000 and TNOM = 27.000000


No. of Data Rows : 349
ymax                =  1.000000e+00 at=  1.412538e-01
cut                 =  5.155624e+06
Doing analysis at TEMP = 27.000000 and TNOM = 27.000000


No. of Data Rows : 349
ymax                =  1.000000e+00 at=  1.412538e-01
cut                 =  5.229858e+06
Doing analysis at TEMP = 27.000000 and TNOM = 27.000000


No. of Data Rows : 349
ymax                =  1.000000e+00 at=  1.412538e-01
cut                 =  5.179194e+06
Doing analysis at TEMP = 27.000000 and TNOM = 27.000000


No. of Data Rows : 349
ymax                =  1.000000e+00 at=  1.412538e-01
cut                 =  5.147456e+06
Doing analysis at TEMP = 27.000000 and TNOM = 27.000000


No. of Data Rows : 349
ymax                =  1.000000e+00 at=  1.412538e-01
cut                 =  5.147370e+06
Doing analysis at TEMP = 27.000000 and TNOM = 27.000000


No. of Data Rows : 349
ymax                =  1.000000e+00 at=  1.333521e-01
cut                 =  4.930605e+06
Doing analysis at TEMP = 27.000000 and TNOM = 27.000000


No. of Data Rows : 349
ymax                =  1.000000e+00 at=  1.412538e-01
cut                 =  5.115031e+06
Doing analysis at TEMP = 27.000000 and TNOM = 27.000000


No. of Data Rows : 349
ymax                =  1.000000e+00 at=  1.333521e-01
cut                 =  5.008806e+06
Doing analysis at TEMP = 27.000000 and TNOM = 27.000000


No. of Data Rows : 349
ymax                =  1.000000e+00 at=  1.412538e-01
cut                 =  5.215152e+06
Doing analysis at TEMP = 27.000000 and TNOM = 27.000000


No. of Data Rows : 349
ymax                =  1.000000e+00 at=  1.333521e-01
cut                 =  5.041055e+06
Doing analysis at TEMP = 27.000000 and TNOM = 27.000000


No. of Data Rows : 349
ymax                =  1.000000e+00 at=  1.412538e-01
cut                 =  5.170950e+06
Doing analysis at TEMP = 27.000000 and TNOM = 27.000000


No. of Data Rows : 349
ymax                =  1.000000e+00 at=  1.412538e-01
cut                 =  5.266659e+06
Doing analysis at TEMP = 27.000000 and TNOM = 27.000000


No. of Data Rows : 349
ymax                =  1.000000e+00 at=  1.412538e-01
cut                 =  5.053202e+06
Doing analysis at TEMP = 27.000000 and TNOM = 27.000000


No. of Data Rows : 349
ymax                =  1.000000e+00 at=  1.412538e-01
cut                 =  5.141910e+06
Doing analysis at TEMP = 27.000000 and TNOM = 27.000000


No. of Data Rows : 349
ymax                =  1.000000e+00 at=  1.412538e-01
cut                 =  5.133721e+06
Doing analysis at TEMP = 27.000000 and TNOM = 27.000000


No. of Data Rows : 349
ymax                =  1.000000e+00 at=  1.412538e-01
cut                 =  5.094173e+06
Doing analysis at TEMP = 27.000000 and TNOM = 27.000000


No. of Data Rows : 349
ymax                =  1.000000e+00 at=  1.412538e-01
cut                 =  5.092052e+06
Doing analysis at TEMP = 27.000000 and TNOM = 27.000000


No. of Data Rows : 349
ymax                =  1.000000e+00 at=  1.412538e-01
cut                 =  5.249035e+06
Doing analysis at TEMP = 27.000000 and TNOM = 27.000000


No. of Data Rows : 349
ymax                =  1.000000e+00 at=  1.412538e-01
cut                 =  5.211744e+06
Doing analysis at TEMP = 27.000000 and TNOM = 27.000000


No. of Data Rows : 349
ymax                =  1.000000e+00 at=  1.412538e-01
cut                 =  5.101245e+06
Doing analysis at TEMP = 27.000000 and TNOM = 27.000000


No. of Data Rows : 349
ymax                =  1.000000e+00 at=  1.412538e-01
cut                 =  5.075400e+06
Doing analysis at TEMP = 27.000000 and TNOM = 27.000000


No. of Data Rows : 349
ymax                =  1.000000e+00 at=  1.412538e-01
cut                 =  5.186133e+06
Doing analysis at TEMP = 27.000000 and TNOM = 27.000000


No. of Data Rows : 349
ymax                =  1.000000e+00 at=  1.412538e-01
cut                 =  5.113877e+06
Doing analysis at TEMP = 27.000000 and TNOM = 27.000000


No. of Data Rows : 349
ymax                =  1.000000e+00 at=  1.412538e-01
cut                 =  5.186938e+06
Doing analysis at TEMP = 27.000000 and TNOM = 27.000000


No. of Data Rows : 349
ymax                =  1.000000e+00 at=  1.412538e-01
cut                 =  5.088936e+06
Doing analysis at TEMP = 27.000000 and TNOM = 27.000000


No. of Data Rows : 349
ymax                =  1.000000e+00 at=  1.333521e-01
cut                 =  4.887883e+06
Doing analysis at TEMP = 27.000000 and TNOM = 27.000000


No. of Data Rows : 349
ymax                =  1.000000e+00 at=  1.412538e-01
cut                 =  5.090096e+06
Doing analysis at TEMP = 27.000000 and TNOM = 27.000000


No. of Data Rows : 349
ymax                =  1.000000e+00 at=  1.412538e-01
cut                 =  5.142096e+06
Doing analysis at TEMP = 27.000000 and TNOM = 27.000000


No. of Data Rows : 349
ymax                =  1.000000e+00 at=  1.333521e-01
cut                 =  4.989165e+06
Doing analysis at TEMP = 27.000000 and TNOM = 27.000000


No. of Data Rows : 349
ymax                =  1.000000e+00 at=  1.412538e-01
cut                 =  5.205507e+06
Doing analysis at TEMP = 27.000000 and TNOM = 27.000000


No. of Data Rows : 349
ymax                =  1.000000e+00 at=  1.412538e-01
cut                 =  5.154832e+06
Doing analysis at TEMP = 27.000000 and TNOM = 27.000000


No. of Data Rows : 349
ymax                =  1.000000e+00 at=  1.412538e-01
cut                 =  5.099472e+06
Doing analysis at TEMP = 27.000000 and TNOM = 27.000000


No. of Data Rows : 349
ymax                =  1.000000e+00 at=  1.412538e-01
cut                 =  5.222801e+06
Doing analysis at TEMP = 27.000000 and TNOM = 27.000000


No. of Data Rows : 349
ymax                =  1.000000e+00 at=  1.412538e-01
cut                 =  5.114076e+06
Doing analysis at TEMP = 27.000000 and TNOM = 27.000000


No. of Data Rows : 349
ymax                =  1.000000e+00 at=  1.333521e-01
cut                 =  4.961499e+06
Doing analysis at TEMP = 27.000000 and TNOM = 27.000000


No. of Data Rows : 349
ymax                =  1.000000e+00 at=  1.412538e-01
cut                 =  5.040302e+06
Doing analysis at TEMP = 27.000000 and TNOM = 27.000000


No. of Data Rows : 349
ymax                =  1.000000e+00 at=  1.412538e-01
cut                 =  5.076267e+06
Doing analysis at TEMP = 27.000000 and TNOM = 27.000000


No. of Data Rows : 349
ymax                =  1.000000e+00 at=  1.412538e-01
cut                 =  5.147764e+06
Doing analysis at TEMP = 27.000000 and TNOM = 27.000000


No. of Data Rows : 349
ymax                =  1.000000e+00 at=  1.412538e-01
cut                 =  5.113865e+06
Doing analysis at TEMP = 27.000000 and TNOM = 27.000000


No. of Data Rows : 349
ymax                =  1.000000e+00 at=  1.412538e-01
cut                 =  5.140158e+06
Doing analysis at TEMP = 27.000000 and TNOM = 27.000000


No. of Data Rows : 349
ymax                =  1.000000e+00 at=  1.412538e-01
cut                 =  5.049117e+06
Doing analysis at TEMP = 27.000000 and TNOM = 27.000000


No. of Data Rows : 349
ymax                =  1.000000e+00 at=  1.412538e-01
cut                 =  5.062737e+06
Doing analysis at TEMP = 27.000000 and TNOM = 27.000000


No. of Data Rows : 349
ymax                =  1.000000e+00 at=  1.412538e-01
cut                 =  5.153530e+06
Doing analysis at TEMP = 27.000000 and TNOM = 27.000000


No. of Data Rows : 349
ymax                =  1.000000e+00 at=  1.412538e-01
cut                 =  5.140839e+06
Doing analysis at TEMP = 27.000000 and TNOM = 27.000000


No. of Data Rows : 349
ymax                =  1.000000e+00 at=  1.412538e-01
cut                 =  5.103864e+06
Doing analysis at TEMP = 27.000000 and TNOM = 27.000000


No. of Data Rows : 349
ymax                =  1.000000e+00 at=  1.333521e-01
cut                 =  4.869721e+06
Doing analysis at TEMP = 27.000000 and TNOM = 27.000000


No. of Data Rows : 349
ymax                =  1.000000e+00 at=  1.412538e-01
cut                 =  5.140160e+06
Doing analysis at TEMP = 27.000000 and TNOM = 27.000000


No. of Data Rows : 349
ymax                =  1.000000e+00 at=  1.412538e-01
cut                 =  5.199457e+06
Doing analysis at TEMP = 27.000000 and TNOM = 27.000000


No. of Data Rows : 349
ymax                =  1.000000e+00 at=  1.412538e-01
cut                 =  5.112647e+06
Doing analysis at TEMP = 27.000000 and TNOM = 27.000000


No. of Data Rows : 349
ymax                =  1.000000e+00 at=  1.412538e-01
cut                 =  5.095009e+06
Doing analysis at TEMP = 27.000000 and TNOM = 27.000000


No. of Data Rows : 349
ymax                =  1.000000e+00 at=  1.333521e-01
cut                 =  5.010880e+06
Doing analysis at TEMP = 27.000000 and TNOM = 27.000000


No. of Data Rows : 349
ymax                =  1.000000e+00 at=  1.333521e-01
cut                 =  4.947312e+06
Doing analysis at TEMP = 27.000000 and TNOM = 27.000000


No. of Data Rows : 349
ymax                =  1.000000e+00 at=  1.412538e-01
cut                 =  5.180584e+06
Doing analysis at TEMP = 27.000000 and TNOM = 27.000000


No. of Data Rows : 349
ymax                =  1.000000e+00 at=  1.412538e-01
cut                 =  5.168241e+06
Doing analysis at TEMP = 27.000000 and TNOM = 27.000000


No. of Data Rows : 349
ymax                =  1.000000e+00 at=  1.412538e-01
cut                 =  5.167867e+06
Doing analysis at TEMP = 27.000000 and TNOM = 27.000000


No. of Data Rows : 349
ymax                =  1.000000e+00 at=  1.412538e-01
cut                 =  5.156288e+06
Doing analysis at TEMP = 27.000000 and TNOM = 27.000000


No. of Data Rows : 349
ymax                =  1.000000e+00 at=  1.412538e-01
cut                 =  5.202457e+06
Doing analysis at TEMP = 27.000000 and TNOM = 27.000000


No. of Data Rows : 349
ymax                =  1.000000e+00 at=  1.412538e-01
cut                 =  5.132711e+06
Doing analysis at TEMP = 27.000000 and TNOM = 27.000000


No. of Data Rows : 349
ymax                =  1.000000e+00 at=  1.412538e-01
cut                 =  5.112257e+06
Doing analysis at TEMP = 27.000000 and TNOM = 27.000000


No. of Data Rows : 349
ymax                =  1.000000e+00 at=  1.412538e-01
cut                 =  5.071085e+06
Doing analysis at TEMP = 27.000000 and TNOM = 27.000000


No. of Data Rows : 349
ymax                =  1.000000e+00 at=  1.412538e-01
cut                 =  5.087861e+06
Doing analysis at TEMP = 27.000000 and TNOM = 27.000000


No. of Data Rows : 349
ymax                =  1.000000e+00 at=  1.412538e-01
cut                 =  5.198048e+06
Doing analysis at TEMP = 27.000000 and TNOM = 27.000000


No. of Data Rows : 349
ymax                =  1.000000e+00 at=  1.412538e-01
cut                 =  5.163439e+06
Doing analysis at TEMP = 27.000000 and TNOM = 27.000000


No. of Data Rows : 349
ymax                =  1.000000e+00 at=  1.412538e-01
cut                 =  5.055552e+06
Doing analysis at TEMP = 27.000000 and TNOM = 27.000000


No. of Data Rows : 349
ymax                =  1.000000e+00 at=  1.412538e-01
cut                 =  5.099878e+06
Doing analysis at TEMP = 27.000000 and TNOM = 27.000000


No. of Data Rows : 349
ymax                =  1.000000e+00 at=  1.412538e-01
cut                 =  5.122513e+06
Doing analysis at TEMP = 27.000000 and TNOM = 27.000000


No. of Data Rows : 349
ymax                =  1.000000e+00 at=  1.333521e-01
cut                 =  5.001145e+06
Doing analysis at TEMP = 27.000000 and TNOM = 27.000000


No. of Data Rows : 349
ymax                =  1.000000e+00 at=  1.412538e-01
cut                 =  5.182496e+06
Doing analysis at TEMP = 27.000000 and TNOM = 27.000000


No. of Data Rows : 349
ymax                =  1.000000e+00 at=  1.412538e-01
cut                 =  5.036568e+06
Doing analysis at TEMP = 27.000000 and TNOM = 27.000000


No. of Data Rows : 349
ymax                =  1.000000e+00 at=  1.412538e-01
cut                 =  5.165127e+06
Doing analysis at TEMP = 27.000000 and TNOM = 27.000000


No. of Data Rows : 349
ymax                =  1.000000e+00 at=  1.412538e-01
cut                 =  5.156675e+06
Doing analysis at TEMP = 27.000000 and TNOM = 27.000000


No. of Data Rows : 349
ymax                =  1.000000e+00 at=  1.333521e-01
cut                 =  5.018543e+06
Doing analysis at TEMP = 27.000000 and TNOM = 27.000000


No. of Data Rows : 349
ymax                =  1.000000e+00 at=  1.412538e-01
cut                 =  5.225339e+06
Doing analysis at TEMP = 27.000000 and TNOM = 27.000000


No. of Data Rows : 349
ymax                =  1.000000e+00 at=  1.412538e-01
cut                 =  5.063194e+06
Doing analysis at TEMP = 27.000000 and TNOM = 27.000000


No. of Data Rows : 349
ymax                =  1.000000e+00 at=  1.412538e-01
cut                 =  5.182781e+06
Doing analysis at TEMP = 27.000000 and TNOM = 27.000000


No. of Data Rows : 349
ymax                =  1.000000e+00 at=  1.412538e-01
cut                 =  5.087357e+06
Doing analysis at TEMP = 27.000000 and TNOM = 27.000000


No. of Data Rows : 349
ymax                =  1.000000e+00 at=  1.412538e-01
cut                 =  5.338549e+06
Doing analysis at TEMP = 27.000000 and TNOM = 27.000000


No. of Data Rows : 349
ymax                =  1.000000e+00 at=  1.412538e-01
cut                 =  5.154795e+06
Doing analysis at TEMP = 27.000000 and TNOM = 27.000000


No. of Data Rows : 349
ymax                =  1.000000e+00 at=  1.333521e-01
cut                 =  5.027371e+06
Doing analysis at TEMP = 27.000000 and TNOM = 27.000000


No. of Data Rows : 349
ymax                =  1.000000e+00 at=  1.412538e-01
cut                 =  5.203175e+06
Doing analysis at TEMP = 27.000000 and TNOM = 27.000000


No. of Data Rows : 349
ymax                =  1.000000e+00 at=  1.412538e-01
cut                 =  5.120543e+06
Doing analysis at TEMP = 27.000000 and TNOM = 27.000000


No. of Data Rows : 349
ymax                =  1.000000e+00 at=  1.412538e-01
cut                 =  5.193048e+06
Doing analysis at TEMP = 27.000000 and TNOM = 27.000000


No. of Data Rows : 349
ymax                =  1.000000e+00 at=  1.412538e-01
cut                 =  5.120118e+06
Doing analysis at TEMP = 27.000000 and TNOM = 27.000000


No. of Data Rows : 349
ymax                =  1.000000e+00 at=  1.412538e-01
cut                 =  5.077270e+06
Doing analysis at TEMP = 27.000000 and TNOM = 27.000000


No. of Data Rows : 349
ymax                =  1.000000e+00 at=  1.333521e-01
cut                 =  4.921272e+06
Doing analysis at TEMP = 27.000000 and TNOM = 27.000000


No. of Data Rows : 349
ymax                =  1.000000e+00 at=  1.412538e-01
cut                 =  5.056251e+06
Doing analysis at TEMP = 27.000000 and TNOM = 27.000000


No. of Data Rows : 349
ymax                =  1.000000e+00 at=  1.412538e-01
cut                 =  5.082891e+06
Doing analysis at TEMP = 27.000000 and TNOM = 27.000000


No. of Data Rows : 349
ymax                =  1.000000e+00 at=  1.412538e-01
cut                 =  5.198975e+06
Doing analysis at TEMP = 27.000000 and TNOM = 27.000000


No. of Data Rows : 349
ymax                =  1.000000e+00 at=  1.412538e-01
cut                 =  5.059929e+06
Doing analysis at TEMP = 27.000000 and TNOM = 27.000000


No. of Data Rows : 349
ymax                =  1.000000e+00 at=  1.412538e-01
cut                 =  5.108947e+06
Doing analysis at TEMP = 27.000000 and TNOM = 27.000000


No. of Data Rows : 349
ymax                =  1.000000e+00 at=  1.412538e-01
cut                 =  5.185317e+06
Doing analysis at TEMP = 27.000000 and TNOM = 27.000000


No. of Data Rows : 349
ymax                =  1.000000e+00 at=  1.412538e-01
cut                 =  5.163108e+06
Doing analysis at TEMP = 27.000000 and TNOM = 27.000000


No. of Data Rows : 349
ymax                =  1.000000e+00 at=  1.412538e-01
cut                 =  5.095667e+06
Doing analysis at TEMP = 27.000000 and TNOM = 27.000000


No. of Data Rows : 349
ymax                =  1.000000e+00 at=  1.412538e-01
cut                 =  5.236006e+06
Doing analysis at TEMP = 27.000000 and TNOM = 27.000000


No. of Data Rows : 349
ymax                =  1.000000e+00 at=  1.412538e-01
cut                 =  5.072118e+06
Doing analysis at TEMP = 27.000000 and TNOM = 27.000000


No. of Data Rows : 349
ymax                =  1.000000e+00 at=  1.333521e-01
cut                 =  5.009264e+06
Doing analysis at TEMP = 27.000000 and TNOM = 27.000000


No. of Data Rows : 349
ymax                =  1.000000e+00 at=  1.412538e-01
cut                 =  5.288288e+06
Doing analysis at TEMP = 27.000000 and TNOM = 27.000000


No. of Data Rows : 349
ymax                =  1.000000e+00 at=  1.412538e-01
cut                 =  5.157036e+06
Doing analysis at TEMP = 27.000000 and TNOM = 27.000000


No. of Data Rows : 349
ymax                =  1.000000e+00 at=  1.412538e-01
cut                 =  5.063047e+06
Doing analysis at TEMP = 27.000000 and TNOM = 27.000000


No. of Data Rows : 349
ymax                =  1.000000e+00 at=  1.412538e-01
cut                 =  5.186041e+06
Doing analysis at TEMP = 27.000000 and TNOM = 27.000000


No. of Data Rows : 349
ymax                =  1.000000e+00 at=  1.412538e-01
cut                 =  5.105749e+06
Doing analysis at TEMP = 27.000000 and TNOM = 27.000000


No. of Data Rows : 349
ymax                =  1.000000e+00 at=  1.333521e-01
cut                 =  5.030362e+06
Doing analysis at TEMP = 27.000000 and TNOM = 27.000000


No. of Data Rows : 349
ymax                =  1.000000e+00 at=  1.412538e-01
cut                 =  5.098194e+06
Doing analysis at TEMP = 27.000000 and TNOM = 27.000000


No. of Data Rows : 349
ymax                =  1.000000e+00 at=  1.412538e-01
cut                 =  5.090176e+06
Doing analysis at TEMP = 27.000000 and TNOM = 27.000000


No. of Data Rows : 349
ymax                =  1.000000e+00 at=  1.412538e-01
cut                 =  5.103260e+06
Doing analysis at TEMP = 27.000000 and TNOM = 27.000000


No. of Data Rows : 349
ymax                =  1.000000e+00 at=  1.412538e-01
cut                 =  5.094664e+06
Doing analysis at TEMP = 27.000000 and TNOM = 27.000000


No. of Data Rows : 349
ymax                =  1.000000e+00 at=  1.412538e-01
cut                 =  5.081220e+06
Doing analysis at TEMP = 27.000000 and TNOM = 27.000000


No. of Data Rows : 349
ymax                =  1.000000e+00 at=  1.412538e-01
cut                 =  5.216768e+06
Doing analysis at TEMP = 27.000000 and TNOM = 27.000000


No. of Data Rows : 349
ymax                =  1.000000e+00 at=  1.412538e-01
cut                 =  5.065619e+06
Doing analysis at TEMP = 27.000000 and TNOM = 27.000000


No. of Data Rows : 349
ymax                =  1.000000e+00 at=  1.412538e-01
cut                 =  5.073981e+06
Doing analysis at TEMP = 27.000000 and TNOM = 27.000000


No. of Data Rows : 349
ymax                =  1.000000e+00 at=  1.412538e-01
cut                 =  5.150229e+06
Doing analysis at TEMP = 27.000000 and TNOM = 27.000000


No. of Data Rows : 349
ymax                =  1.000000e+00 at=  1.412538e-01
cut                 =  5.189709e+06
Doing analysis at TEMP = 27.000000 and TNOM = 27.000000


No. of Data Rows : 349
ymax                =  1.000000e+00 at=  1.412538e-01
cut                 =  5.123172e+06
Doing analysis at TEMP = 27.000000 and TNOM = 27.000000


No. of Data Rows : 349
ymax                =  1.000000e+00 at=  1.412538e-01
cut                 =  5.074061e+06
Doing analysis at TEMP = 27.000000 and TNOM = 27.000000


No. of Data Rows : 349
ymax                =  1.000000e+00 at=  1.412538e-01
cut                 =  5.322459e+06
Doing analysis at TEMP = 27.000000 and TNOM = 27.000000


No. of Data Rows : 349
ymax                =  1.000000e+00 at=  1.412538e-01
cut                 =  5.139059e+06
Doing analysis at TEMP = 27.000000 and TNOM = 27.000000


No. of Data Rows : 349
ymax                =  1.000000e+00 at=  1.412538e-01
cut                 =  5.063116e+06
Doing analysis at TEMP = 27.000000 and TNOM = 27.000000


No. of Data Rows : 349
ymax                =  1.000000e+00 at=  1.412538e-01
cut                 =  5.147298e+06
Doing analysis at TEMP = 27.000000 and TNOM = 27.000000


No. of Data Rows : 349
ymax                =  1.000000e+00 at=  1.333521e-01
cut                 =  5.025516e+06
Doing analysis at TEMP = 27.000000 and TNOM = 27.000000


No. of Data Rows : 349
ymax                =  1.000000e+00 at=  1.333521e-01
cut                 =  5.008135e+06
Doing analysis at TEMP = 27.000000 and TNOM = 27.000000


No. of Data Rows : 349
ymax                =  1.000000e+00 at=  1.412538e-01
cut                 =  5.116811e+06
Doing analysis at TEMP = 27.000000 and TNOM = 27.000000


No. of Data Rows : 349
ymax                =  1.000000e+00 at=  1.333521e-01
cut                 =  5.046693e+06
Doing analysis at TEMP = 27.000000 and TNOM = 27.000000


No. of Data Rows : 349
ymax                =  1.000000e+00 at=  1.412538e-01
cut                 =  5.103808e+06
Doing analysis at TEMP = 27.000000 and TNOM = 27.000000


No. of Data Rows : 349
ymax                =  1.000000e+00 at=  1.412538e-01
cut                 =  5.122642e+06
Doing analysis at TEMP = 27.000000 and TNOM = 27.000000


No. of Data Rows : 349
ymax                =  1.000000e+00 at=  1.333521e-01
cut                 =  5.029836e+06
Doing analysis at TEMP = 27.000000 and TNOM = 27.000000


No. of Data Rows : 349
ymax                =  1.000000e+00 at=  1.412538e-01
cut                 =  5.133219e+06
Doing analysis at TEMP = 27.000000 and TNOM = 27.000000


No. of Data Rows : 349
ymax                =  1.000000e+00 at=  1.412538e-01
cut                 =  5.158333e+06
Doing analysis at TEMP = 27.000000 and TNOM = 27.000000


No. of Data Rows : 349
ymax                =  1.000000e+00 at=  1.412538e-01
cut                 =  5.155484e+06
Doing analysis at TEMP = 27.000000 and TNOM = 27.000000


No. of Data Rows : 349
ymax                =  1.000000e+00 at=  1.412538e-01
cut                 =  5.196144e+06
Doing analysis at TEMP = 27.000000 and TNOM = 27.000000


No. of Data Rows : 349
ymax                =  1.000000e+00 at=  1.496236e-01
cut                 =  5.349632e+06
Doing analysis at TEMP = 27.000000 and TNOM = 27.000000


No. of Data Rows : 349
ymax                =  1.000000e+00 at=  1.412538e-01
cut                 =  5.140570e+06
Doing analysis at TEMP = 27.000000 and TNOM = 27.000000


No. of Data Rows : 349
ymax                =  1.000000e+00 at=  1.412538e-01
cut                 =  5.090528e+06
Doing analysis at TEMP = 27.000000 and TNOM = 27.000000


No. of Data Rows : 349
ymax                =  1.000000e+00 at=  1.412538e-01
cut                 =  5.063947e+06
Doing analysis at TEMP = 27.000000 and TNOM = 27.000000


No. of Data Rows : 349
ymax                =  1.000000e+00 at=  1.412538e-01
cut                 =  5.112737e+06
Doing analysis at TEMP = 27.000000 and TNOM = 27.000000


No. of Data Rows : 349
ymax                =  1.000000e+00 at=  1.412538e-01
cut                 =  5.237617e+06
Doing analysis at TEMP = 27.000000 and TNOM = 27.000000


No. of Data Rows : 349
ymax                =  1.000000e+00 at=  1.412538e-01
cut                 =  5.146555e+06
Doing analysis at TEMP = 27.000000 and TNOM = 27.000000


No. of Data Rows : 349
ymax                =  1.000000e+00 at=  1.333521e-01
cut                 =  5.001848e+06
Doing analysis at TEMP = 27.000000 and TNOM = 27.000000


No. of Data Rows : 349
ymax                =  1.000000e+00 at=  1.412538e-01
cut                 =  5.167493e+06
Doing analysis at TEMP = 27.000000 and TNOM = 27.000000


No. of Data Rows : 349
ymax                =  1.000000e+00 at=  1.412538e-01
cut                 =  5.187185e+06
Doing analysis at TEMP = 27.000000 and TNOM = 27.000000


No. of Data Rows : 349
ymax                =  1.000000e+00 at=  1.412538e-01
cut                 =  5.186413e+06
Doing analysis at TEMP = 27.000000 and TNOM = 27.000000


No. of Data Rows : 349
ymax                =  1.000000e+00 at=  1.333521e-01
cut                 =  4.878165e+06
Doing analysis at TEMP = 27.000000 and TNOM = 27.000000


No. of Data Rows : 349
ymax                =  1.000000e+00 at=  1.412538e-01
cut                 =  5.225993e+06
Doing analysis at TEMP = 27.000000 and TNOM = 27.000000


No. of Data Rows : 349
ymax                =  1.000000e+00 at=  1.412538e-01
cut                 =  5.179885e+06
Doing analysis at TEMP = 27.000000 and TNOM = 27.000000


No. of Data Rows : 349
ymax                =  1.000000e+00 at=  1.412538e-01
cut                 =  5.128147e+06
Doing analysis at TEMP = 27.000000 and TNOM = 27.000000


No. of Data Rows : 349
ymax                =  1.000000e+00 at=  1.333521e-01
cut                 =  4.964111e+06
Doing analysis at TEMP = 27.000000 and TNOM = 27.000000


No. of Data Rows : 349
ymax                =  1.000000e+00 at=  1.333521e-01
cut                 =  4.912396e+06
Doing analysis at TEMP = 27.000000 and TNOM = 27.000000


No. of Data Rows : 349
ymax                =  1.000000e+00 at=  1.333521e-01
cut                 =  4.990506e+06
Doing analysis at TEMP = 27.000000 and TNOM = 27.000000


No. of Data Rows : 349
ymax                =  1.000000e+00 at=  1.412538e-01
cut                 =  5.132042e+06
Doing analysis at TEMP = 27.000000 and TNOM = 27.000000


No. of Data Rows : 349
ymax                =  1.000000e+00 at=  1.412538e-01
cut                 =  5.073094e+06
Doing analysis at TEMP = 27.000000 and TNOM = 27.000000


No. of Data Rows : 349
ymax                =  1.000000e+00 at=  1.412538e-01
cut                 =  5.100814e+06
Doing analysis at TEMP = 27.000000 and TNOM = 27.000000


No. of Data Rows : 349
ymax                =  1.000000e+00 at=  1.412538e-01
cut                 =  5.195893e+06
Doing analysis at TEMP = 27.000000 and TNOM = 27.000000


No. of Data Rows : 349
ymax                =  1.000000e+00 at=  1.412538e-01
cut                 =  5.241700e+06
Doing analysis at TEMP = 27.000000 and TNOM = 27.000000


No. of Data Rows : 349
ymax                =  1.000000e+00 at=  1.412538e-01
cut                 =  5.159196e+06
Doing analysis at TEMP = 27.000000 and TNOM = 27.000000


No. of Data Rows : 349
ymax                =  1.000000e+00 at=  1.412538e-01
cut                 =  5.079513e+06
Doing analysis at TEMP = 27.000000 and TNOM = 27.000000


No. of Data Rows : 349
ymax                =  1.000000e+00 at=  1.333521e-01
cut                 =  5.009629e+06
Doing analysis at TEMP = 27.000000 and TNOM = 27.000000


No. of Data Rows : 349
ymax                =  1.000000e+00 at=  1.412538e-01
cut                 =  5.134503e+06
Doing analysis at TEMP = 27.000000 and TNOM = 27.000000


No. of Data Rows : 349
ymax                =  1.000000e+00 at=  1.333521e-01
cut                 =  5.001993e+06
Doing analysis at TEMP = 27.000000 and TNOM = 27.000000


No. of Data Rows : 349
ymax                =  1.000000e+00 at=  1.412538e-01
cut                 =  5.169716e+06
Doing analysis at TEMP = 27.000000 and TNOM = 27.000000


No. of Data Rows : 349
ymax                =  1.000000e+00 at=  1.412538e-01
cut                 =  5.188844e+06
Doing analysis at TEMP = 27.000000 and TNOM = 27.000000


No. of Data Rows : 349
ymax                =  1.000000e+00 at=  1.412538e-01
cut                 =  5.096425e+06
Doing analysis at TEMP = 27.000000 and TNOM = 27.000000


No. of Data Rows : 349
ymax                =  1.000000e+00 at=  1.412538e-01
cut                 =  5.198549e+06
Doing analysis at TEMP = 27.000000 and TNOM = 27.000000


No. of Data Rows : 349
ymax                =  1.000000e+00 at=  1.412538e-01
cut                 =  5.170123e+06
Doing analysis at TEMP = 27.000000 and TNOM = 27.000000


No. of Data Rows : 349
ymax                =  1.000000e+00 at=  1.412538e-01
cut                 =  5.035197e+06
Doing analysis at TEMP = 27.000000 and TNOM = 27.000000


No. of Data Rows : 349
ymax                =  1.000000e+00 at=  1.333521e-01
cut                 =  4.967902e+06
Doing analysis at TEMP = 27.000000 and TNOM = 27.000000


No. of Data Rows : 349
ymax                =  1.000000e+00 at=  1.412538e-01
cut                 =  5.172952e+06
Doing analysis at TEMP = 27.000000 and TNOM = 27.000000


No. of Data Rows : 349
ymax                =  1.000000e+00 at=  1.412538e-01
cut                 =  5.201813e+06
Doing analysis at TEMP = 27.000000 and TNOM = 27.000000


No. of Data Rows : 349
ymax                =  1.000000e+00 at=  1.412538e-01
cut                 =  5.228489e+06
Doing analysis at TEMP = 27.000000 and TNOM = 27.000000


No. of Data Rows : 349
ymax                =  1.000000e+00 at=  1.333521e-01
cut                 =  4.815234e+06
Doing analysis at TEMP = 27.000000 and TNOM = 27.000000


No. of Data Rows : 349
ymax                =  1.000000e+00 at=  1.412538e-01
cut                 =  5.204140e+06
Doing analysis at TEMP = 27.000000 and TNOM = 27.000000


No. of Data Rows : 349
ymax                =  1.000000e+00 at=  1.333521e-01
cut                 =  4.976544e+06
Doing analysis at TEMP = 27.000000 and TNOM = 27.000000


No. of Data Rows : 349
ymax                =  1.000000e+00 at=  1.412538e-01
cut                 =  5.260093e+06
Doing analysis at TEMP = 27.000000 and TNOM = 27.000000


No. of Data Rows : 349
ymax                =  1.000000e+00 at=  1.412538e-01
cut                 =  5.252050e+06
Doing analysis at TEMP = 27.000000 and TNOM = 27.000000


No. of Data Rows : 349
ymax                =  1.000000e+00 at=  1.412538e-01
cut                 =  5.252028e+06
Doing analysis at TEMP = 27.000000 and TNOM = 27.000000


No. of Data Rows : 349
ymax                =  1.000000e+00 at=  1.333521e-01
cut                 =  5.036586e+06
Doing analysis at TEMP = 27.000000 and TNOM = 27.000000


No. of Data Rows : 349
ymax                =  1.000000e+00 at=  1.412538e-01
cut                 =  5.241420e+06
Doing analysis at TEMP = 27.000000 and TNOM = 27.000000


No. of Data Rows : 349
ymax                =  1.000000e+00 at=  1.412538e-01
cut                 =  5.119720e+06
Doing analysis at TEMP = 27.000000 and TNOM = 27.000000


No. of Data Rows : 349
ymax                =  1.000000e+00 at=  1.412538e-01
cut                 =  5.088981e+06
Doing analysis at TEMP = 27.000000 and TNOM = 27.000000


No. of Data Rows : 349
ymax                =  1.000000e+00 at=  1.412538e-01
cut                 =  5.190979e+06
Doing analysis at TEMP = 27.000000 and TNOM = 27.000000


No. of Data Rows : 349
ymax                =  1.000000e+00 at=  1.412538e-01
cut                 =  5.157412e+06
Doing analysis at TEMP = 27.000000 and TNOM = 27.000000


No. of Data Rows : 349
ymax                =  1.000000e+00 at=  1.412538e-01
cut                 =  5.237828e+06
Doing analysis at TEMP = 27.000000 and TNOM = 27.000000


No. of Data Rows : 349
ymax                =  1.000000e+00 at=  1.333521e-01
cut                 =  5.032319e+06
Doing analysis at TEMP = 27.000000 and TNOM = 27.000000


No. of Data Rows : 349
ymax                =  1.000000e+00 at=  1.412538e-01
cut                 =  5.054583e+06
Doing analysis at TEMP = 27.000000 and TNOM = 27.000000


No. of Data Rows : 349
ymax                =  1.000000e+00 at=  1.412538e-01
cut                 =  5.195330e+06
Doing analysis at TEMP = 27.000000 and TNOM = 27.000000


No. of Data Rows : 349
ymax                =  1.000000e+00 at=  1.412538e-01
cut                 =  5.089648e+06
Doing analysis at TEMP = 27.000000 and TNOM = 27.000000


No. of Data Rows : 349
ymax                =  1.000000e+00 at=  1.412538e-01
cut                 =  5.123731e+06
Doing analysis at TEMP = 27.000000 and TNOM = 27.000000


No. of Data Rows : 349
ymax                =  1.000000e+00 at=  1.412538e-01
cut                 =  5.165172e+06
Doing analysis at TEMP = 27.000000 and TNOM = 27.000000


No. of Data Rows : 349
ymax                =  1.000000e+00 at=  1.412538e-01
cut                 =  5.164891e+06
Doing analysis at TEMP = 27.000000 and TNOM = 27.000000


No. of Data Rows : 349
ymax                =  1.000000e+00 at=  1.412538e-01
cut                 =  5.097906e+06
Doing analysis at TEMP = 27.000000 and TNOM = 27.000000


No. of Data Rows : 349
ymax                =  1.000000e+00 at=  1.412538e-01
cut                 =  5.178129e+06
Doing analysis at TEMP = 27.000000 and TNOM = 27.000000


No. of Data Rows : 349
ymax                =  1.000000e+00 at=  1.412538e-01
cut                 =  5.195125e+06
Doing analysis at TEMP = 27.000000 and TNOM = 27.000000


No. of Data Rows : 349
ymax                =  1.000000e+00 at=  1.412538e-01
cut                 =  5.117951e+06
Doing analysis at TEMP = 27.000000 and TNOM = 27.000000


No. of Data Rows : 349
ymax                =  1.000000e+00 at=  1.412538e-01
cut                 =  5.236898e+06
Doing analysis at TEMP = 27.000000 and TNOM = 27.000000


No. of Data Rows : 349
ymax                =  1.000000e+00 at=  1.412538e-01
cut                 =  5.225392e+06
Doing analysis at TEMP = 27.000000 and TNOM = 27.000000


No. of Data Rows : 349
ymax                =  1.000000e+00 at=  1.412538e-01
cut                 =  5.122825e+06
Doing analysis at TEMP = 27.000000 and TNOM = 27.000000


No. of Data Rows : 349
ymax                =  1.000000e+00 at=  1.412538e-01
cut                 =  5.142463e+06
Doing analysis at TEMP = 27.000000 and TNOM = 27.000000


No. of Data Rows : 349
ymax                =  1.000000e+00 at=  1.412538e-01
cut                 =  5.276397e+06
Doing analysis at TEMP = 27.000000 and TNOM = 27.000000


No. of Data Rows : 349
ymax                =  1.000000e+00 at=  1.333521e-01
cut                 =  5.020627e+06
Doing analysis at TEMP = 27.000000 and TNOM = 27.000000


No. of Data Rows : 349
ymax                =  1.000000e+00 at=  1.412538e-01
cut                 =  5.220374e+06
Doing analysis at TEMP = 27.000000 and TNOM = 27.000000


No. of Data Rows : 349
ymax                =  1.000000e+00 at=  1.412538e-01
cut                 =  5.128876e+06
Doing analysis at TEMP = 27.000000 and TNOM = 27.000000


No. of Data Rows : 349
ymax                =  1.000000e+00 at=  1.412538e-01
cut                 =  5.053797e+06
Doing analysis at TEMP = 27.000000 and TNOM = 27.000000


No. of Data Rows : 349
ymax                =  1.000000e+00 at=  1.412538e-01
cut                 =  5.150893e+06
Doing analysis at TEMP = 27.000000 and TNOM = 27.000000


No. of Data Rows : 349
ymax                =  1.000000e+00 at=  1.412538e-01
cut                 =  5.076263e+06
Doing analysis at TEMP = 27.000000 and TNOM = 27.000000


No. of Data Rows : 349
ymax                =  1.000000e+00 at=  1.412538e-01
cut                 =  5.095697e+06
Doing analysis at TEMP = 27.000000 and TNOM = 27.000000


No. of Data Rows : 349
ymax                =  1.000000e+00 at=  1.333521e-01
cut                 =  5.029226e+06
Doing analysis at TEMP = 27.000000 and TNOM = 27.000000


No. of Data Rows : 349
ymax                =  1.000000e+00 at=  1.333521e-01
cut                 =  4.942946e+06
Doing analysis at TEMP = 27.000000 and TNOM = 27.000000


No. of Data Rows : 349
ymax                =  1.000000e+00 at=  1.412538e-01
cut                 =  5.128320e+06
Doing analysis at TEMP = 27.000000 and TNOM = 27.000000


No. of Data Rows : 349
ymax                =  1.000000e+00 at=  1.412538e-01
cut                 =  5.169175e+06
Doing analysis at TEMP = 27.000000 and TNOM = 27.000000


No. of Data Rows : 349
ymax                =  1.000000e+00 at=  1.412538e-01
cut                 =  5.096186e+06
Doing analysis at TEMP = 27.000000 and TNOM = 27.000000


No. of Data Rows : 349
ymax                =  1.000000e+00 at=  1.412538e-01
cut                 =  5.069613e+06
Doing analysis at TEMP = 27.000000 and TNOM = 27.000000


No. of Data Rows : 349
ymax                =  1.000000e+00 at=  1.412538e-01
cut                 =  5.081999e+06
Doing analysis at TEMP = 27.000000 and TNOM = 27.000000


No. of Data Rows : 349
ymax                =  1.000000e+00 at=  1.333521e-01
cut                 =  4.937601e+06
Doing analysis at TEMP = 27.000000 and TNOM = 27.000000


No. of Data Rows : 349
ymax                =  1.000000e+00 at=  1.412538e-01
cut                 =  5.067951e+06
Doing analysis at TEMP = 27.000000 and TNOM = 27.000000


No. of Data Rows : 349
ymax                =  1.000000e+00 at=  1.412538e-01
cut                 =  5.231634e+06
Doing analysis at TEMP = 27.000000 and TNOM = 27.000000


No. of Data Rows : 349
ymax                =  1.000000e+00 at=  1.412538e-01
cut                 =  5.199053e+06
Doing analysis at TEMP = 27.000000 and TNOM = 27.000000


No. of Data Rows : 349
ymax                =  1.000000e+00 at=  1.412538e-01
cut                 =  5.275541e+06
Doing analysis at TEMP = 27.000000 and TNOM = 27.000000


No. of Data Rows : 349
ymax                =  1.000000e+00 at=  1.333521e-01
cut                 =  4.991490e+06
Doing analysis at TEMP = 27.000000 and TNOM = 27.000000


No. of Data Rows : 349
ymax                =  1.000000e+00 at=  1.412538e-01
cut                 =  5.182342e+06
Doing analysis at TEMP = 27.000000 and TNOM = 27.000000


No. of Data Rows : 349
ymax                =  1.000000e+00 at=  1.412538e-01
cut                 =  5.093906e+06
Doing analysis at TEMP = 27.000000 and TNOM = 27.000000


No. of Data Rows : 349
ymax                =  1.000000e+00 at=  1.412538e-01
cut                 =  5.103214e+06
Doing analysis at TEMP = 27.000000 and TNOM = 27.000000


No. of Data Rows : 349
ymax                =  1.000000e+00 at=  1.412538e-01
cut                 =  5.164679e+06
Doing analysis at TEMP = 27.000000 and TNOM = 27.000000


No. of Data Rows : 349
ymax                =  1.000000e+00 at=  1.333521e-01
cut                 =  5.037024e+06
Doing analysis at TEMP = 27.000000 and TNOM = 27.000000


No. of Data Rows : 349
ymax                =  1.000000e+00 at=  1.412538e-01
cut                 =  5.151746e+06
Doing analysis at TEMP = 27.000000 and TNOM = 27.000000


No. of Data Rows : 349
ymax                =  1.000000e+00 at=  1.412538e-01
cut                 =  5.295807e+06
Doing analysis at TEMP = 27.000000 and TNOM = 27.000000


No. of Data Rows : 349
ymax                =  1.000000e+00 at=  1.412538e-01
cut                 =  5.065681e+06
Doing analysis at TEMP = 27.000000 and TNOM = 27.000000


No. of Data Rows : 349
ymax                =  1.000000e+00 at=  1.333521e-01
cut                 =  5.012769e+06
Doing analysis at TEMP = 27.000000 and TNOM = 27.000000


No. of Data Rows : 349
ymax                =  1.000000e+00 at=  1.412538e-01
cut                 =  5.091317e+06
Doing analysis at TEMP = 27.000000 and TNOM = 27.000000


No. of Data Rows : 349
ymax                =  1.000000e+00 at=  1.412538e-01
cut                 =  5.148145e+06
Doing analysis at TEMP = 27.000000 and TNOM = 27.000000


No. of Data Rows : 349
ymax                =  1.000000e+00 at=  1.412538e-01
cut                 =  5.147992e+06
Doing analysis at TEMP = 27.000000 and TNOM = 27.000000


No. of Data Rows : 349
ymax                =  1.000000e+00 at=  1.412538e-01
cut                 =  5.074608e+06
Doing analysis at TEMP = 27.000000 and TNOM = 27.000000


No. of Data Rows : 349
ymax                =  1.000000e+00 at=  1.412538e-01
cut                 =  5.138738e+06
Doing analysis at TEMP = 27.000000 and TNOM = 27.000000


No. of Data Rows : 349
ymax                =  1.000000e+00 at=  1.412538e-01
cut                 =  5.165199e+06
Doing analysis at TEMP = 27.000000 and TNOM = 27.000000


No. of Data Rows : 349
ymax                =  1.000000e+00 at=  1.412538e-01
cut                 =  5.220230e+06
Doing analysis at TEMP = 27.000000 and TNOM = 27.000000


No. of Data Rows : 349
ymax                =  1.000000e+00 at=  1.412538e-01
cut                 =  5.165247e+06
Doing analysis at TEMP = 27.000000 and TNOM = 27.000000


No. of Data Rows : 349
ymax                =  1.000000e+00 at=  1.412538e-01
cut                 =  5.123443e+06
Doing analysis at TEMP = 27.000000 and TNOM = 27.000000


No. of Data Rows : 349
ymax                =  1.000000e+00 at=  1.412538e-01
cut                 =  5.259377e+06
Doing analysis at TEMP = 27.000000 and TNOM = 27.000000


No. of Data Rows : 349
ymax                =  1.000000e+00 at=  1.333521e-01
cut                 =  5.001239e+06
Doing analysis at TEMP = 27.000000 and TNOM = 27.000000


No. of Data Rows : 349
ymax                =  1.000000e+00 at=  1.412538e-01
cut                 =  5.133178e+06
Doing analysis at TEMP = 27.000000 and TNOM = 27.000000


No. of Data Rows : 349
ymax                =  1.000000e+00 at=  1.412538e-01
cut                 =  5.042569e+06
Doing analysis at TEMP = 27.000000 and TNOM = 27.000000


No. of Data Rows : 349
ymax                =  1.000000e+00 at=  1.412538e-01
cut                 =  5.135797e+06
Doing analysis at TEMP = 27.000000 and TNOM = 27.000000


No. of Data Rows : 349
ymax                =  1.000000e+00 at=  1.412538e-01
cut                 =  5.106999e+06
Doing analysis at TEMP = 27.000000 and TNOM = 27.000000


No. of Data Rows : 349
ymax                =  1.000000e+00 at=  1.412538e-01
cut                 =  5.289680e+06
Doing analysis at TEMP = 27.000000 and TNOM = 27.000000


No. of Data Rows : 349
ymax                =  1.000000e+00 at=  1.412538e-01
cut                 =  5.149367e+06
Doing analysis at TEMP = 27.000000 and TNOM = 27.000000


No. of Data Rows : 349
ymax                =  1.000000e+00 at=  1.412538e-01
cut                 =  5.339393e+06
Doing analysis at TEMP = 27.000000 and TNOM = 27.000000


No. of Data Rows : 349
ymax                =  1.000000e+00 at=  1.412538e-01
cut                 =  5.267517e+06
Doing analysis at TEMP = 27.000000 and TNOM = 27.000000


No. of Data Rows : 349
ymax                =  1.000000e+00 at=  1.412538e-01
cut                 =  5.044897e+06
Doing analysis at TEMP = 27.000000 and TNOM = 27.000000


No. of Data Rows : 349
ymax                =  1.000000e+00 at=  1.412538e-01
cut                 =  5.063148e+06
Doing analysis at TEMP = 27.000000 and TNOM = 27.000000


No. of Data Rows : 349
ymax                =  1.000000e+00 at=  1.333521e-01
cut                 =  5.008348e+06
Doing analysis at TEMP = 27.000000 and TNOM = 27.000000


No. of Data Rows : 349
ymax                =  1.000000e+00 at=  1.412538e-01
cut                 =  5.073115e+06
Doing analysis at TEMP = 27.000000 and TNOM = 27.000000


No. of Data Rows : 349
ymax                =  1.000000e+00 at=  1.412538e-01
cut                 =  5.169186e+06
Doing analysis at TEMP = 27.000000 and TNOM = 27.000000


No. of Data Rows : 349
ymax                =  1.000000e+00 at=  1.412538e-01
cut                 =  5.086828e+06
Doing analysis at TEMP = 27.000000 and TNOM = 27.000000


No. of Data Rows : 349
ymax                =  1.000000e+00 at=  1.412538e-01
cut                 =  5.173022e+06
Doing analysis at TEMP = 27.000000 and TNOM = 27.000000


No. of Data Rows : 349
ymax                =  1.000000e+00 at=  1.412538e-01
cut                 =  5.112138e+06
Doing analysis at TEMP = 27.000000 and TNOM = 27.000000


No. of Data Rows : 349
ymax                =  1.000000e+00 at=  1.412538e-01
cut                 =  5.067912e+06
Doing analysis at TEMP = 27.000000 and TNOM = 27.000000


No. of Data Rows : 349
ymax                =  1.000000e+00 at=  1.333521e-01
cut                 =  4.956619e+06
Doing analysis at TEMP = 27.000000 and TNOM = 27.000000


No. of Data Rows : 349
ymax                =  1.000000e+00 at=  1.333521e-01
cut                 =  4.998211e+06
Doing analysis at TEMP = 27.000000 and TNOM = 27.000000


No. of Data Rows : 349
ymax                =  1.000000e+00 at=  1.333521e-01
cut                 =  4.991186e+06
Doing analysis at TEMP = 27.000000 and TNOM = 27.000000


No. of Data Rows : 349
ymax                =  1.000000e+00 at=  1.412538e-01
cut                 =  5.057076e+06
Doing analysis at TEMP = 27.000000 and TNOM = 27.000000


No. of Data Rows : 349
ymax                =  1.000000e+00 at=  1.412538e-01
cut                 =  5.115314e+06
Doing analysis at TEMP = 27.000000 and TNOM = 27.000000


No. of Data Rows : 349
ymax                =  1.000000e+00 at=  1.412538e-01
cut                 =  5.157748e+06
Doing analysis at TEMP = 27.000000 and TNOM = 27.000000


No. of Data Rows : 349
ymax                =  1.000000e+00 at=  1.333521e-01
cut                 =  4.994325e+06
Doing analysis at TEMP = 27.000000 and TNOM = 27.000000


No. of Data Rows : 349
ymax                =  1.000000e+00 at=  1.412538e-01
cut                 =  5.104464e+06
Doing analysis at TEMP = 27.000000 and TNOM = 27.000000


No. of Data Rows : 349
ymax                =  1.000000e+00 at=  1.412538e-01
cut                 =  5.220179e+06
Doing analysis at TEMP = 27.000000 and TNOM = 27.000000


No. of Data Rows : 349
ymax                =  1.000000e+00 at=  1.412538e-01
cut                 =  5.171118e+06
Doing analysis at TEMP = 27.000000 and TNOM = 27.000000


No. of Data Rows : 349
ymax                =  1.000000e+00 at=  1.412538e-01
cut                 =  5.098773e+06
Doing analysis at TEMP = 27.000000 and TNOM = 27.000000


No. of Data Rows : 349
ymax                =  1.000000e+00 at=  1.412538e-01
cut                 =  5.144209e+06
Doing analysis at TEMP = 27.000000 and TNOM = 27.000000


No. of Data Rows : 349
ymax                =  1.000000e+00 at=  1.412538e-01
cut                 =  5.087244e+06
Doing analysis at TEMP = 27.000000 and TNOM = 27.000000


No. of Data Rows : 349
ymax                =  1.000000e+00 at=  1.333521e-01
cut                 =  5.005176e+06
Doing analysis at TEMP = 27.000000 and TNOM = 27.000000


No. of Data Rows : 349
ymax                =  1.000000e+00 at=  1.412538e-01
cut                 =  5.187437e+06
Doing analysis at TEMP = 27.000000 and TNOM = 27.000000


No. of Data Rows : 349
ymax                =  1.000000e+00 at=  1.412538e-01
cut                 =  5.179557e+06
Doing analysis at TEMP = 27.000000 and TNOM = 27.000000


No. of Data Rows : 349
ymax                =  1.000000e+00 at=  1.412538e-01
cut                 =  5.260248e+06
Doing analysis at TEMP = 27.000000 and TNOM = 27.000000


No. of Data Rows : 349
ymax                =  1.000000e+00 at=  1.333521e-01
cut                 =  4.985135e+06
Doing analysis at TEMP = 27.000000 and TNOM = 27.000000


No. of Data Rows : 349
ymax                =  1.000000e+00 at=  1.412538e-01
cut                 =  5.148640e+06
Doing analysis at TEMP = 27.000000 and TNOM = 27.000000


No. of Data Rows : 349
ymax                =  1.000000e+00 at=  1.412538e-01
cut                 =  5.130010e+06
Doing analysis at TEMP = 27.000000 and TNOM = 27.000000


No. of Data Rows : 349
ymax                =  1.000000e+00 at=  1.412538e-01
cut                 =  5.112891e+06
Doing analysis at TEMP = 27.000000 and TNOM = 27.000000


No. of Data Rows : 349
ymax                =  1.000000e+00 at=  1.412538e-01
cut                 =  5.247162e+06
Doing analysis at TEMP = 27.000000 and TNOM = 27.000000


No. of Data Rows : 349
ymax                =  1.000000e+00 at=  1.333521e-01
cut                 =  4.982657e+06
Doing analysis at TEMP = 27.000000 and TNOM = 27.000000


No. of Data Rows : 349
ymax                =  1.000000e+00 at=  1.412538e-01
cut                 =  5.184202e+06
Doing analysis at TEMP = 27.000000 and TNOM = 27.000000


No. of Data Rows : 349
ymax                =  1.000000e+00 at=  1.333521e-01
cut                 =  5.028588e+06
Doing analysis at TEMP = 27.000000 and TNOM = 27.000000


No. of Data Rows : 349
ymax                =  1.000000e+00 at=  1.412538e-01
cut                 =  5.231858e+06
Doing analysis at TEMP = 27.000000 and TNOM = 27.000000


No. of Data Rows : 349
ymax                =  1.000000e+00 at=  1.412538e-01
cut                 =  5.167448e+06
Doing analysis at TEMP = 27.000000 and TNOM = 27.000000


No. of Data Rows : 349
ymax                =  1.000000e+00 at=  1.412538e-01
cut                 =  5.105343e+06
Doing analysis at TEMP = 27.000000 and TNOM = 27.000000


No. of Data Rows : 349
ymax                =  1.000000e+00 at=  1.412538e-01
cut                 =  5.188766e+06
Doing analysis at TEMP = 27.000000 and TNOM = 27.000000


No. of Data Rows : 349
ymax                =  1.000000e+00 at=  1.412538e-01
cut                 =  5.095364e+06
Doing analysis at TEMP = 27.000000 and TNOM = 27.000000


No. of Data Rows : 349
ymax                =  1.000000e+00 at=  1.412538e-01
cut                 =  5.189169e+06
Doing analysis at TEMP = 27.000000 and TNOM = 27.000000


No. of Data Rows : 349
ymax                =  1.000000e+00 at=  1.412538e-01
cut                 =  5.068306e+06
Doing analysis at TEMP = 27.000000 and TNOM = 27.000000


No. of Data Rows : 349
ymax                =  1.000000e+00 at=  1.412538e-01
cut                 =  5.130427e+06
Doing analysis at TEMP = 27.000000 and TNOM = 27.000000


No. of Data Rows : 349
ymax                =  1.000000e+00 at=  1.412538e-01
cut                 =  5.038383e+06
Doing analysis at TEMP = 27.000000 and TNOM = 27.000000


No. of Data Rows : 349
ymax                =  1.000000e+00 at=  1.333521e-01
cut                 =  4.954335e+06
Doing analysis at TEMP = 27.000000 and TNOM = 27.000000


No. of Data Rows : 349
ymax                =  1.000000e+00 at=  1.412538e-01
cut                 =  5.046888e+06
Doing analysis at TEMP = 27.000000 and TNOM = 27.000000


No. of Data Rows : 349
ymax                =  1.000000e+00 at=  1.412538e-01
cut                 =  5.131661e+06
Doing analysis at TEMP = 27.000000 and TNOM = 27.000000


No. of Data Rows : 349
ymax                =  1.000000e+00 at=  1.412538e-01
cut                 =  5.102410e+06
Doing analysis at TEMP = 27.000000 and TNOM = 27.000000


No. of Data Rows : 349
ymax                =  1.000000e+00 at=  1.412538e-01
cut                 =  5.175391e+06
Doing analysis at TEMP = 27.000000 and TNOM = 27.000000


No. of Data Rows : 349
ymax                =  1.000000e+00 at=  1.333521e-01
cut                 =  5.029228e+06
Doing analysis at TEMP = 27.000000 and TNOM = 27.000000


No. of Data Rows : 349
ymax                =  1.000000e+00 at=  1.412538e-01
cut                 =  5.167077e+06
Doing analysis at TEMP = 27.000000 and TNOM = 27.000000


No. of Data Rows : 349
ymax                =  1.000000e+00 at=  1.412538e-01
cut                 =  5.124155e+06
Doing analysis at TEMP = 27.000000 and TNOM = 27.000000


No. of Data Rows : 349
ymax                =  1.000000e+00 at=  1.333521e-01
cut                 =  4.963357e+06
Doing analysis at TEMP = 27.000000 and TNOM = 27.000000


No. of Data Rows : 349
ymax                =  1.000000e+00 at=  1.412538e-01
cut                 =  5.114697e+06
Doing analysis at TEMP = 27.000000 and TNOM = 27.000000


No. of Data Rows : 349
ymax                =  1.000000e+00 at=  1.412538e-01
cut                 =  5.088891e+06
Doing analysis at TEMP = 27.000000 and TNOM = 27.000000


No. of Data Rows : 349
ymax                =  1.000000e+00 at=  1.333521e-01
cut                 =  5.002134e+06
Doing analysis at TEMP = 27.000000 and TNOM = 27.000000


No. of Data Rows : 349
ymax                =  1.000000e+00 at=  1.412538e-01
cut                 =  5.118398e+06
Doing analysis at TEMP = 27.000000 and TNOM = 27.000000


No. of Data Rows : 349
ymax                =  1.000000e+00 at=  1.412538e-01
cut                 =  5.124760e+06
Doing analysis at TEMP = 27.000000 and TNOM = 27.000000


No. of Data Rows : 349
ymax                =  1.000000e+00 at=  1.412538e-01
cut                 =  5.200561e+06
Doing analysis at TEMP = 27.000000 and TNOM = 27.000000


No. of Data Rows : 349
ymax                =  1.000000e+00 at=  1.412538e-01
cut                 =  5.144312e+06
Doing analysis at TEMP = 27.000000 and TNOM = 27.000000


No. of Data Rows : 349
ymax                =  1.000000e+00 at=  1.412538e-01
cut                 =  5.141038e+06
Doing analysis at TEMP = 27.000000 and TNOM = 27.000000


No. of Data Rows : 349
ymax                =  1.000000e+00 at=  1.412538e-01
cut                 =  5.107056e+06
Doing analysis at TEMP = 27.000000 and TNOM = 27.000000


No. of Data Rows : 349
ymax                =  1.000000e+00 at=  1.412538e-01
cut                 =  5.175410e+06
Doing analysis at TEMP = 27.000000 and TNOM = 27.000000


No. of Data Rows : 349
ymax                =  1.000000e+00 at=  1.412538e-01
cut                 =  5.162355e+06
Doing analysis at TEMP = 27.000000 and TNOM = 27.000000


No. of Data Rows : 349
ymax                =  1.000000e+00 at=  1.412538e-01
cut                 =  5.101516e+06
Doing analysis at TEMP = 27.000000 and TNOM = 27.000000


No. of Data Rows : 349
ymax                =  1.000000e+00 at=  1.412538e-01
cut                 =  5.080178e+06
Doing analysis at TEMP = 27.000000 and TNOM = 27.000000


No. of Data Rows : 349
ymax                =  1.000000e+00 at=  1.412538e-01
cut                 =  5.103760e+06
Doing analysis at TEMP = 27.000000 and TNOM = 27.000000


No. of Data Rows : 349
ymax                =  1.000000e+00 at=  1.412538e-01
cut                 =  5.163998e+06
Doing analysis at TEMP = 27.000000 and TNOM = 27.000000


No. of Data Rows : 349
ymax                =  1.000000e+00 at=  1.333521e-01
cut                 =  4.993918e+06
Doing analysis at TEMP = 27.000000 and TNOM = 27.000000


No. of Data Rows : 349
ymax                =  1.000000e+00 at=  1.412538e-01
cut                 =  5.228446e+06
Doing analysis at TEMP = 27.000000 and TNOM = 27.000000


No. of Data Rows : 349
ymax                =  1.000000e+00 at=  1.412538e-01
cut                 =  5.259381e+06
Doing analysis at TEMP = 27.000000 and TNOM = 27.000000


No. of Data Rows : 349
ymax                =  1.000000e+00 at=  1.412538e-01
cut                 =  5.048661e+06
Doing analysis at TEMP = 27.000000 and TNOM = 27.000000


No. of Data Rows : 349
ymax                =  1.000000e+00 at=  1.412538e-01
cut                 =  5.147077e+06
Doing analysis at TEMP = 27.000000 and TNOM = 27.000000


No. of Data Rows : 349
ymax                =  1.000000e+00 at=  1.412538e-01
cut                 =  5.163903e+06
Doing analysis at TEMP = 27.000000 and TNOM = 27.000000


No. of Data Rows : 349
ymax                =  1.000000e+00 at=  1.412538e-01
cut                 =  5.106739e+06
Doing analysis at TEMP = 27.000000 and TNOM = 27.000000


No. of Data Rows : 349
ymax                =  1.000000e+00 at=  1.412538e-01
cut                 =  5.061380e+06
Doing analysis at TEMP = 27.000000 and TNOM = 27.000000


No. of Data Rows : 349
ymax                =  1.000000e+00 at=  1.412538e-01
cut                 =  5.198198e+06
Doing analysis at TEMP = 27.000000 and TNOM = 27.000000


No. of Data Rows : 349
ymax                =  1.000000e+00 at=  1.412538e-01
cut                 =  5.250456e+06
Doing analysis at TEMP = 27.000000 and TNOM = 27.000000


No. of Data Rows : 349
ymax                =  1.000000e+00 at=  1.412538e-01
cut                 =  5.051561e+06
Doing analysis at TEMP = 27.000000 and TNOM = 27.000000


No. of Data Rows : 349
ymax                =  1.000000e+00 at=  1.412538e-01
cut                 =  5.058457e+06
Doing analysis at TEMP = 27.000000 and TNOM = 27.000000


No. of Data Rows : 349
ymax                =  1.000000e+00 at=  1.412538e-01
cut                 =  5.075958e+06
Doing analysis at TEMP = 27.000000 and TNOM = 27.000000


No. of Data Rows : 349
ymax                =  1.000000e+00 at=  1.412538e-01
cut                 =  5.098853e+06
Doing analysis at TEMP = 27.000000 and TNOM = 27.000000


No. of Data Rows : 349
ymax                =  1.000000e+00 at=  1.412538e-01
cut                 =  5.085163e+06
Doing analysis at TEMP = 27.000000 and TNOM = 27.000000


No. of Data Rows : 349
ymax                =  1.000000e+00 at=  1.333521e-01
cut                 =  4.941739e+06
Doing analysis at TEMP = 27.000000 and TNOM = 27.000000


No. of Data Rows : 349
ymax                =  1.000000e+00 at=  1.412538e-01
cut                 =  5.150710e+06
Doing analysis at TEMP = 27.000000 and TNOM = 27.000000


No. of Data Rows : 349
ymax                =  1.000000e+00 at=  1.412538e-01
cut                 =  5.052493e+06
Doing analysis at TEMP = 27.000000 and TNOM = 27.000000


No. of Data Rows : 349
ymax                =  1.000000e+00 at=  1.333521e-01
cut                 =  5.000885e+06
Doing analysis at TEMP = 27.000000 and TNOM = 27.000000


No. of Data Rows : 349
ymax                =  1.000000e+00 at=  1.412538e-01
cut                 =  5.158878e+06
Doing analysis at TEMP = 27.000000 and TNOM = 27.000000


No. of Data Rows : 349
ymax                =  1.000000e+00 at=  1.412538e-01
cut                 =  5.304198e+06
Doing analysis at TEMP = 27.000000 and TNOM = 27.000000


No. of Data Rows : 349
ymax                =  1.000000e+00 at=  1.412538e-01
cut                 =  5.135754e+06
Doing analysis at TEMP = 27.000000 and TNOM = 27.000000


No. of Data Rows : 349
ymax                =  1.000000e+00 at=  1.412538e-01
cut                 =  5.057987e+06
Doing analysis at TEMP = 27.000000 and TNOM = 27.000000


No. of Data Rows : 349
ymax                =  1.000000e+00 at=  1.333521e-01
cut                 =  4.950934e+06
Doing analysis at TEMP = 27.000000 and TNOM = 27.000000


No. of Data Rows : 349
ymax                =  1.000000e+00 at=  1.412538e-01
cut                 =  5.205538e+06
Doing analysis at TEMP = 27.000000 and TNOM = 27.000000


No. of Data Rows : 349
ymax                =  1.000000e+00 at=  1.412538e-01
cut                 =  5.078888e+06
Doing analysis at TEMP = 27.000000 and TNOM = 27.000000


No. of Data Rows : 349
ymax                =  1.000000e+00 at=  1.333521e-01
cut                 =  5.023814e+06
Doing analysis at TEMP = 27.000000 and TNOM = 27.000000


No. of Data Rows : 349
ymax                =  1.000000e+00 at=  1.412538e-01
cut                 =  5.247828e+06
Doing analysis at TEMP = 27.000000 and TNOM = 27.000000


No. of Data Rows : 349
ymax                =  1.000000e+00 at=  1.412538e-01
cut                 =  5.200816e+06
Doing analysis at TEMP = 27.000000 and TNOM = 27.000000


No. of Data Rows : 349
ymax                =  1.000000e+00 at=  1.412538e-01
cut                 =  5.216456e+06
Doing analysis at TEMP = 27.000000 and TNOM = 27.000000


No. of Data Rows : 349
ymax                =  1.000000e+00 at=  1.412538e-01
cut                 =  5.230492e+06
Doing analysis at TEMP = 27.000000 and TNOM = 27.000000


No. of Data Rows : 349
ymax                =  1.000000e+00 at=  1.333521e-01
cut                 =  4.936490e+06
Doing analysis at TEMP = 27.000000 and TNOM = 27.000000


No. of Data Rows : 349
ymax                =  1.000000e+00 at=  1.412538e-01
cut                 =  5.057838e+06
Doing analysis at TEMP = 27.000000 and TNOM = 27.000000


No. of Data Rows : 349
ymax                =  1.000000e+00 at=  1.412538e-01
cut                 =  5.074267e+06
Doing analysis at TEMP = 27.000000 and TNOM = 27.000000


No. of Data Rows : 349
ymax                =  1.000000e+00 at=  1.412538e-01
cut                 =  5.063919e+06
Doing analysis at TEMP = 27.000000 and TNOM = 27.000000


No. of Data Rows : 349
ymax                =  1.000000e+00 at=  1.412538e-01
cut                 =  5.175608e+06
Doing analysis at TEMP = 27.000000 and TNOM = 27.000000


No. of Data Rows : 349
ymax                =  1.000000e+00 at=  1.333521e-01
cut                 =  4.906769e+06
Doing analysis at TEMP = 27.000000 and TNOM = 27.000000


No. of Data Rows : 349
ymax                =  1.000000e+00 at=  1.412538e-01
cut                 =  5.096830e+06
Doing analysis at TEMP = 27.000000 and TNOM = 27.000000


No. of Data Rows : 349
ymax                =  1.000000e+00 at=  1.412538e-01
cut                 =  5.160287e+06
Doing analysis at TEMP = 27.000000 and TNOM = 27.000000


No. of Data Rows : 349
ymax                =  1.000000e+00 at=  1.333521e-01
cut                 =  5.001213e+06
Doing analysis at TEMP = 27.000000 and TNOM = 27.000000


No. of Data Rows : 349
ymax                =  1.000000e+00 at=  1.333521e-01
cut                 =  4.998555e+06
Doing analysis at TEMP = 27.000000 and TNOM = 27.000000


No. of Data Rows : 349
[...]
ymax                =  1.000000e+00 at=  1.333521e-01
cut                 =  5.012687e+06
Doing analysis at TEMP = 27.000000 and TNOM = 27.000000


No. of Data Rows : 349
ymax                =  1.000000e+00 at=  1.412538e-01
cut                 =  5.107505e+06
Doing analysis at TEMP = 27.000000 and TNOM = 27.000000


No. of Data Rows : 349
ymax                =  1.000000e+00 at=  1.412538e-01
cut                 =  5.135150e+06
Doing analysis at TEMP = 27.000000 and TNOM = 27.000000


No. of Data Rows : 349
ymax                =  1.000000e+00 at=  1.333521e-01
cut                 =  5.039084e+06
Doing analysis at TEMP = 27.000000 and TNOM = 27.000000


No. of Data Rows : 349
ymax                =  1.000000e+00 at=  1.412538e-01
cut                 =  5.151814e+06
Doing analysis at TEMP = 27.000000 and TNOM = 27.000000


No. of Data Rows : 349
ymax                =  1.000000e+00 at=  1.412538e-01
cut                 =  5.089604e+06
Doing analysis at TEMP = 27.000000 and TNOM = 27.000000


No. of Data Rows : 349
ymax                =  1.000000e+00 at=  1.412538e-01
cut                 =  5.173671e+06
Doing analysis at TEMP = 27.000000 and TNOM = 27.000000


No. of Data Rows : 349
ymax                =  1.000000e+00 at=  1.412538e-01
cut                 =  5.112307e+06
Doing analysis at TEMP = 27.000000 and TNOM = 27.000000


No. of Data Rows : 349
ymax                =  1.000000e+00 at=  1.412538e-01
cut                 =  5.133344e+06
Doing analysis at TEMP = 27.000000 and TNOM = 27.000000


No. of Data Rows : 349
ymax                =  1.000000e+00 at=  1.412538e-01
cut                 =  5.153063e+06
Doing analysis at TEMP = 27.000000 and TNOM = 27.000000


No. of Data Rows : 349
ymax                =  1.000000e+00 at=  1.412538e-01
cut                 =  5.306158e+06
Doing analysis at TEMP = 27.000000 and TNOM = 27.000000


No. of Data Rows : 349
ymax                =  1.000000e+00 at=  1.412538e-01
cut                 =  5.108121e+06
Doing analysis at TEMP = 27.000000 and TNOM = 27.000000


No. of Data Rows : 349
ymax                =  1.000000e+00 at=  1.412538e-01
cut                 =  5.060421e+06
Doing analysis at TEMP = 27.000000 and TNOM = 27.000000


No. of Data Rows : 349
ymax                =  1.000000e+00 at=  1.412538e-01
cut                 =  5.110920e+06
Doing analysis at TEMP = 27.000000 and TNOM = 27.000000


No. of Data Rows : 349
ymax                =  1.000000e+00 at=  1.333521e-01
cut                 =  4.995625e+06
Doing analysis at TEMP = 27.000000 and TNOM = 27.000000


No. of Data Rows : 349
ymax                =  1.000000e+00 at=  1.412538e-01
cut                 =  5.256294e+06
Doing analysis at TEMP = 27.000000 and TNOM = 27.000000


No. of Data Rows : 349
ymax                =  1.000000e+00 at=  1.333521e-01
cut                 =  5.000792e+06
Doing analysis at TEMP = 27.000000 and TNOM = 27.000000


No. of Data Rows : 349
ymax                =  1.000000e+00 at=  1.412538e-01
cut                 =  5.303362e+06
Doing analysis at TEMP = 27.000000 and TNOM = 27.000000


No. of Data Rows : 349
ymax                =  1.000000e+00 at=  1.412538e-01
cut                 =  5.209467e+06
Doing analysis at TEMP = 27.000000 and TNOM = 27.000000


No. of Data Rows : 349
ymax                =  1.000000e+00 at=  1.412538e-01
cut                 =  5.231315e+06
Doing analysis at TEMP = 27.000000 and TNOM = 27.000000


No. of Data Rows : 349
ymax                =  1.000000e+00 at=  1.333521e-01
cut                 =  5.018659e+06
Doing analysis at TEMP = 27.000000 and TNOM = 27.000000


No. of Data Rows : 349
ymax                =  1.000000e+00 at=  1.412538e-01
cut                 =  5.116728e+06
Doing analysis at TEMP = 27.000000 and TNOM = 27.000000


No. of Data Rows : 349
ymax                =  1.000000e+00 at=  1.333521e-01
cut                 =  5.016399e+06
Doing analysis at TEMP = 27.000000 and TNOM = 27.000000


No. of Data Rows : 349
ymax                =  1.000000e+00 at=  1.412538e-01
cut                 =  5.190407e+06
Doing analysis at TEMP = 27.000000 and TNOM = 27.000000


No. of Data Rows : 349
ymax                =  1.000000e+00 at=  1.412538e-01
cut                 =  5.158283e+06
Doing analysis at TEMP = 27.000000 and TNOM = 27.000000


No. of Data Rows : 349
ymax                =  1.000000e+00 at=  1.412538e-01
cut                 =  5.114612e+06
Doing analysis at TEMP = 27.000000 and TNOM = 27.000000


No. of Data Rows : 349
ymax                =  1.000000e+00 at=  1.412538e-01
cut                 =  5.220987e+06
Doing analysis at TEMP = 27.000000 and TNOM = 27.000000


No. of Data Rows : 349
ymax                =  1.000000e+00 at=  1.412538e-01
cut                 =  5.097635e+06
Doing analysis at TEMP = 27.000000 and TNOM = 27.000000


No. of Data Rows : 349
ymax                =  1.000000e+00 at=  1.412538e-01
cut                 =  5.070148e+06
Doing analysis at TEMP = 27.000000 and TNOM = 27.000000


No. of Data Rows : 349
ymax                =  1.000000e+00 at=  1.333521e-01
cut                 =  5.010515e+06
Doing analysis at TEMP = 27.000000 and TNOM = 27.000000


No. of Data Rows : 349
ymax                =  1.000000e+00 at=  1.412538e-01
cut                 =  5.238264e+06
Doing analysis at TEMP = 27.000000 and TNOM = 27.000000


No. of Data Rows : 349
ymax                =  1.000000e+00 at=  1.333521e-01
cut                 =  5.011380e+06
Doing analysis at TEMP = 27.000000 and TNOM = 27.000000


No. of Data Rows : 349
ymax                =  1.000000e+00 at=  1.412538e-01
cut                 =  5.104736e+06
Doing analysis at TEMP = 27.000000 and TNOM = 27.000000


No. of Data Rows : 349
ymax                =  1.000000e+00 at=  1.412538e-01
cut                 =  5.092374e+06
Doing analysis at TEMP = 27.000000 and TNOM = 27.000000


No. of Data Rows : 349
ymax                =  1.000000e+00 at=  1.412538e-01
cut                 =  5.062642e+06
Doing analysis at TEMP = 27.000000 and TNOM = 27.000000


No. of Data Rows : 349
ymax                =  1.000000e+00 at=  1.412538e-01
cut                 =  5.114554e+06
Doing analysis at TEMP = 27.000000 and TNOM = 27.000000


No. of Data Rows : 349
ymax                =  1.000000e+00 at=  1.412538e-01
cut                 =  5.074268e+06
Doing analysis at TEMP = 27.000000 and TNOM = 27.000000


No. of Data Rows : 349
ymax                =  1.000000e+00 at=  1.412538e-01
cut                 =  5.121616e+06
Doing analysis at TEMP = 27.000000 and TNOM = 27.000000


No. of Data Rows : 349
ymax                =  1.000000e+00 at=  1.412538e-01
cut                 =  5.127517e+06
Doing analysis at TEMP = 27.000000 and TNOM = 27.000000


No. of Data Rows : 349
ymax                =  1.000000e+00 at=  1.412538e-01
cut                 =  5.232670e+06
Doing analysis at TEMP = 27.000000 and TNOM = 27.000000


No. of Data Rows : 349
ymax                =  1.000000e+00 at=  1.412538e-01
cut                 =  5.180899e+06
Doing analysis at TEMP = 27.000000 and TNOM = 27.000000


No. of Data Rows : 349
ymax                =  1.000000e+00 at=  1.412538e-01
cut                 =  5.122361e+06
Doing analysis at TEMP = 27.000000 and TNOM = 27.000000


No. of Data Rows : 349
ymax                =  1.000000e+00 at=  1.412538e-01
cut                 =  5.056094e+06
Doing analysis at TEMP = 27.000000 and TNOM = 27.000000


No. of Data Rows : 349
ymax                =  1.000000e+00 at=  1.333521e-01
cut                 =  4.920035e+06
Doing analysis at TEMP = 27.000000 and TNOM = 27.000000


No. of Data Rows : 349
ymax                =  1.000000e+00 at=  1.333521e-01
cut                 =  4.946024e+06
Doing analysis at TEMP = 27.000000 and TNOM = 27.000000


No. of Data Rows : 349
ymax                =  1.000000e+00 at=  1.412538e-01
cut                 =  5.097929e+06
Doing analysis at TEMP = 27.000000 and TNOM = 27.000000


No. of Data Rows : 349
ymax                =  1.000000e+00 at=  1.412538e-01
cut                 =  5.286553e+06
Doing analysis at TEMP = 27.000000 and TNOM = 27.000000


No. of Data Rows : 349
ymax                =  1.000000e+00 at=  1.412538e-01
cut                 =  5.053597e+06
Doing analysis at TEMP = 27.000000 and TNOM = 27.000000


No. of Data Rows : 349
ymax                =  1.000000e+00 at=  1.412538e-01
cut                 =  5.147280e+06
Doing analysis at TEMP = 27.000000 and TNOM = 27.000000


No. of Data Rows : 349
ymax                =  1.000000e+00 at=  1.412538e-01
cut                 =  5.163785e+06
Doing analysis at TEMP = 27.000000 and TNOM = 27.000000


No. of Data Rows : 349
ymax                =  1.000000e+00 at=  1.412538e-01
cut                 =  5.182641e+06
Doing analysis at TEMP = 27.000000 and TNOM = 27.000000


No. of Data Rows : 349
ymax                =  1.000000e+00 at=  1.333521e-01
cut                 =  5.044423e+06
Doing analysis at TEMP = 27.000000 and TNOM = 27.000000


No. of Data Rows : 349
ymax                =  1.000000e+00 at=  1.412538e-01
cut                 =  5.280543e+06
Doing analysis at TEMP = 27.000000 and TNOM = 27.000000


No. of Data Rows : 349
ymax                =  1.000000e+00 at=  1.333521e-01
cut                 =  5.011524e+06
Doing analysis at TEMP = 27.000000 and TNOM = 27.000000


No. of Data Rows : 349
ymax                =  1.000000e+00 at=  1.412538e-01
cut                 =  5.128169e+06
Doing analysis at TEMP = 27.000000 and TNOM = 27.000000


No. of Data Rows : 349
ymax                =  1.000000e+00 at=  1.412538e-01
cut                 =  5.059510e+06
Doing analysis at TEMP = 27.000000 and TNOM = 27.000000


No. of Data Rows : 349
ymax                =  1.000000e+00 at=  1.412538e-01
cut                 =  5.163026e+06
Doing analysis at TEMP = 27.000000 and TNOM = 27.000000


No. of Data Rows : 349
ymax                =  1.000000e+00 at=  1.333521e-01
cut                 =  4.936747e+06
Doing analysis at TEMP = 27.000000 and TNOM = 27.000000


No. of Data Rows : 349
ymax                =  1.000000e+00 at=  1.412538e-01
cut                 =  5.187279e+06
Doing analysis at TEMP = 27.000000 and TNOM = 27.000000


No. of Data Rows : 349
ymax                =  1.000000e+00 at=  1.412538e-01
cut                 =  5.086979e+06
Doing analysis at TEMP = 27.000000 and TNOM = 27.000000


No. of Data Rows : 349
ymax                =  1.000000e+00 at=  1.412538e-01
cut                 =  5.176217e+06
Doing analysis at TEMP = 27.000000 and TNOM = 27.000000


No. of Data Rows : 349
ymax                =  1.000000e+00 at=  1.412538e-01
cut                 =  5.073919e+06
Doing analysis at TEMP = 27.000000 and TNOM = 27.000000


No. of Data Rows : 349
ymax                =  1.000000e+00 at=  1.333521e-01
cut                 =  4.964179e+06
Doing analysis at TEMP = 27.000000 and TNOM = 27.000000


No. of Data Rows : 349
ymax                =  1.000000e+00 at=  1.412538e-01
cut                 =  5.263129e+06
Doing analysis at TEMP = 27.000000 and TNOM = 27.000000


No. of Data Rows : 349
ymax                =  1.000000e+00 at=  1.412538e-01
cut                 =  5.104610e+06
Doing analysis at TEMP = 27.000000 and TNOM = 27.000000


No. of Data Rows : 349
ymax                =  1.000000e+00 at=  1.412538e-01
cut                 =  5.064702e+06
Doing analysis at TEMP = 27.000000 and TNOM = 27.000000


No. of Data Rows : 349
ymax                =  1.000000e+00 at=  1.412538e-01
cut                 =  5.146565e+06
Doing analysis at TEMP = 27.000000 and TNOM = 27.000000


No. of Data Rows : 349
ymax                =  1.000000e+00 at=  1.412538e-01
cut                 =  5.132699e+06
Doing analysis at TEMP = 27.000000 and TNOM = 27.000000


No. of Data Rows : 349
ymax                =  1.000000e+00 at=  1.412538e-01
cut                 =  5.240071e+06
Doing analysis at TEMP = 27.000000 and TNOM = 27.000000


No. of Data Rows : 349
ymax                =  1.000000e+00 at=  1.412538e-01
cut                 =  5.062674e+06
Doing analysis at TEMP = 27.000000 and TNOM = 27.000000


No. of Data Rows : 349
ymax                =  1.000000e+00 at=  1.412538e-01
cut                 =  5.139276e+06
Doing analysis at TEMP = 27.000000 and TNOM = 27.000000


No. of Data Rows : 349
ymax                =  1.000000e+00 at=  1.412538e-01
cut                 =  5.131919e+06
Doing analysis at TEMP = 27.000000 and TNOM = 27.000000


No. of Data Rows : 349
ymax                =  1.000000e+00 at=  1.412538e-01
cut                 =  5.128380e+06
Doing analysis at TEMP = 27.000000 and TNOM = 27.000000


No. of Data Rows : 349
ymax                =  1.000000e+00 at=  1.333521e-01
cut                 =  4.948636e+06
Doing analysis at TEMP = 27.000000 and TNOM = 27.000000


No. of Data Rows : 349
ymax                =  1.000000e+00 at=  1.412538e-01
cut                 =  5.093426e+06
Doing analysis at TEMP = 27.000000 and TNOM = 27.000000


No. of Data Rows : 349
ymax                =  1.000000e+00 at=  1.412538e-01
cut                 =  5.145384e+06
Doing analysis at TEMP = 27.000000 and TNOM = 27.000000


No. of Data Rows : 349
ymax                =  1.000000e+00 at=  1.412538e-01
cut                 =  5.143923e+06
Doing analysis at TEMP = 27.000000 and TNOM = 27.000000


No. of Data Rows : 349
ymax                =  1.000000e+00 at=  1.412538e-01
cut                 =  5.286019e+06
Doing analysis at TEMP = 27.000000 and TNOM = 27.000000


No. of Data Rows : 349
ymax                =  1.000000e+00 at=  1.412538e-01
cut                 =  5.128126e+06
Doing analysis at TEMP = 27.000000 and TNOM = 27.000000


No. of Data Rows : 349
ymax                =  1.000000e+00 at=  1.412538e-01
cut                 =  5.225064e+06
Doing analysis at TEMP = 27.000000 and TNOM = 27.000000


No. of Data Rows : 349
ymax                =  1.000000e+00 at=  1.412538e-01
cut                 =  5.078455e+06
Doing analysis at TEMP = 27.000000 and TNOM = 27.000000


No. of Data Rows : 349
ymax                =  1.000000e+00 at=  1.412538e-01
cut                 =  5.152691e+06
Doing analysis at TEMP = 27.000000 and TNOM = 27.000000


No. of Data Rows : 349
ymax                =  1.000000e+00 at=  1.412538e-01
cut                 =  5.149811e+06
Doing analysis at TEMP = 27.000000 and TNOM = 27.000000


No. of Data Rows : 349
ymax                =  1.000000e+00 at=  1.412538e-01
cut                 =  5.043255e+06
Doing analysis at TEMP = 27.000000 and TNOM = 27.000000


No. of Data Rows : 349
ymax                =  1.000000e+00 at=  1.412538e-01
cut                 =  5.039511e+06
Doing analysis at TEMP = 27.000000 and TNOM = 27.000000


No. of Data Rows : 349
ymax                =  1.000000e+00 at=  1.412538e-01
cut                 =  5.178332e+06
Doing analysis at TEMP = 27.000000 and TNOM = 27.000000


No. of Data Rows : 349
ymax                =  1.000000e+00 at=  1.412538e-01
cut                 =  5.143130e+06
Doing analysis at TEMP = 27.000000 and TNOM = 27.000000


No. of Data Rows : 349
ymax                =  1.000000e+00 at=  1.412538e-01
cut                 =  5.117217e+06
Doing analysis at TEMP = 27.000000 and TNOM = 27.000000


No. of Data Rows : 349
ymax                =  1.000000e+00 at=  1.333521e-01
cut                 =  4.898367e+06
Doing analysis at TEMP = 27.000000 and TNOM = 27.000000


No. of Data Rows : 349
ymax                =  1.000000e+00 at=  1.333521e-01
cut                 =  4.970102e+06
Doing analysis at TEMP = 27.000000 and TNOM = 27.000000


No. of Data Rows : 349
ymax                =  1.000000e+00 at=  1.412538e-01
cut                 =  5.152145e+06
Doing analysis at TEMP = 27.000000 and TNOM = 27.000000


No. of Data Rows : 349
ymax                =  1.000000e+00 at=  1.412538e-01
cut                 =  5.146001e+06
Doing analysis at TEMP = 27.000000 and TNOM = 27.000000


No. of Data Rows : 349
ymax                =  1.000000e+00 at=  1.412538e-01
cut                 =  5.116538e+06
Doing analysis at TEMP = 27.000000 and TNOM = 27.000000


No. of Data Rows : 349
ymax                =  1.000000e+00 at=  1.412538e-01
cut                 =  5.133124e+06
Doing analysis at TEMP = 27.000000 and TNOM = 27.000000


No. of Data Rows : 349
ymax                =  1.000000e+00 at=  1.412538e-01
cut                 =  5.083480e+06
Doing analysis at TEMP = 27.000000 and TNOM = 27.000000


No. of Data Rows : 349
ymax                =  1.000000e+00 at=  1.412538e-01
cut                 =  5.152042e+06
Doing analysis at TEMP = 27.000000 and TNOM = 27.000000


No. of Data Rows : 349
ymax                =  1.000000e+00 at=  1.412538e-01
cut                 =  5.096264e+06
Doing analysis at TEMP = 27.000000 and TNOM = 27.000000


No. of Data Rows : 349
ymax                =  1.000000e+00 at=  1.412538e-01
cut                 =  5.259742e+06
Doing analysis at TEMP = 27.000000 and TNOM = 27.000000


No. of Data Rows : 349
ymax                =  1.000000e+00 at=  1.412538e-01
cut                 =  5.051538e+06
Doing analysis at TEMP = 27.000000 and TNOM = 27.000000


No. of Data Rows : 349
ymax                =  1.000000e+00 at=  1.412538e-01
cut                 =  5.158995e+06
Doing analysis at TEMP = 27.000000 and TNOM = 27.000000


No. of Data Rows : 349
ymax                =  1.000000e+00 at=  1.412538e-01
cut                 =  5.154983e+06
Doing analysis at TEMP = 27.000000 and TNOM = 27.000000


No. of Data Rows : 349
ymax                =  1.000000e+00 at=  1.412538e-01
cut                 =  5.060253e+06
Doing analysis at TEMP = 27.000000 and TNOM = 27.000000


No. of Data Rows : 349
ymax                =  1.000000e+00 at=  1.333521e-01
cut                 =  4.997857e+06
Doing analysis at TEMP = 27.000000 and TNOM = 27.000000


No. of Data Rows : 349
ymax                =  1.000000e+00 at=  1.412538e-01
cut                 =  5.205444e+06
Doing analysis at TEMP = 27.000000 and TNOM = 27.000000


No. of Data Rows : 349
ymax                =  1.000000e+00 at=  1.333521e-01
cut                 =  4.966914e+06
Doing analysis at TEMP = 27.000000 and TNOM = 27.000000


No. of Data Rows : 349
ymax                =  1.000000e+00 at=  1.412538e-01
cut                 =  5.098096e+06
Doing analysis at TEMP = 27.000000 and TNOM = 27.000000


No. of Data Rows : 349
ymax                =  1.000000e+00 at=  1.333521e-01
cut                 =  5.034378e+06
Doing analysis at TEMP = 27.000000 and TNOM = 27.000000


No. of Data Rows : 349
ymax                =  1.000000e+00 at=  1.412538e-01
cut                 =  5.173853e+06
Doing analysis at TEMP = 27.000000 and TNOM = 27.000000


No. of Data Rows : 349
ymax                =  1.000000e+00 at=  1.412538e-01
cut                 =  5.211308e+06
Doing analysis at TEMP = 27.000000 and TNOM = 27.000000


No. of Data Rows : 349
ymax                =  1.000000e+00 at=  1.412538e-01
cut                 =  5.096705e+06
Doing analysis at TEMP = 27.000000 and TNOM = 27.000000


No. of Data Rows : 349
ymax                =  1.000000e+00 at=  1.412538e-01
cut                 =  5.065271e+06
Doing analysis at TEMP = 27.000000 and TNOM = 27.000000


No. of Data Rows : 349
ymax                =  1.000000e+00 at=  1.412538e-01
cut                 =  5.202212e+06
Doing analysis at TEMP = 27.000000 and TNOM = 27.000000


No. of Data Rows : 349
ymax                =  1.000000e+00 at=  1.412538e-01
cut                 =  5.147463e+06
Doing analysis at TEMP = 27.000000 and TNOM = 27.000000


No. of Data Rows : 349
ymax                =  1.000000e+00 at=  1.412538e-01
cut                 =  5.066605e+06
Doing analysis at TEMP = 27.000000 and TNOM = 27.000000


No. of Data Rows : 349
ymax                =  1.000000e+00 at=  1.412538e-01
cut                 =  5.060944e+06
Doing analysis at TEMP = 27.000000 and TNOM = 27.000000


No. of Data Rows : 349
ymax                =  1.000000e+00 at=  1.333521e-01
cut                 =  5.036290e+06
Doing analysis at TEMP = 27.000000 and TNOM = 27.000000


No. of Data Rows : 349
ymax                =  1.000000e+00 at=  1.412538e-01
cut                 =  5.145177e+06
Note: No ".plot", ".print", or ".fourier" lines; no simulations run
